47567
     RDKit          3D

 35 37  0  0  0  0  0  0  0  0999 V2000
   -1.9391   -0.8331    2.8756 S   0  0  0  0  0  0  0  0  0  0  0  0
    1.3900    2.2959    0.0650 O   0  0  0  0  0  0  0  0  0  0  0  0
    3.6145    0.9634   -1.3265 O   0  0  0  0  0  0  0  0  0  0  0  0
   -2.0495   -1.3574   -2.7814 O   0  0  0  0  0  0  0  0  0  0  0  0
   -3.5377    3.8629   -0.3588 O   0  0  0  0  0  0  0  0  0  0  0  0
    5.4954   -0.1432   -2.0423 O   0  0  0  0  0  0  0  0  0  0  0  0
   -2.9203   -1.5348   -0.6636 O   0  0  0  0  0  0  0  0  0  0  0  0
   -0.0766    0.6435    0.7315 N   0  0  0  0  0  0  0  0  0  0  0  0
    0.7566    0.6812   -1.4972 N   0  0  0  0  0  0  0  0  0  0  0  0
    5.3915    0.8445    0.0544 N   0  0  0  0  0  0  0  0  0  0  0  0
   -3.4009   -3.0979   -2.3092 N   0  0  0  0  0  0  0  0  0  0  0  0
   -1.4153    1.1345    0.9493 C   0  0  0  0  0  0  0  0  0  0  0  0
    0.4940   -0.3923    1.5546 C   0  0  0  0  0  0  0  0  0  0  0  0
    0.7409    1.2841   -0.2220 C   0  0  0  0  0  0  0  0  0  0  0  0
    1.5739    1.2614   -2.5537 C   0  0  0  0  0  0  0  0  0  0  0  0
    0.0036   -0.5161   -1.8675 C   0  0  0  0  0  0  0  0  0  0  0  0
   -2.3117    0.5657    1.8632 C   0  0  0  0  0  0  0  0  0  0  0  0
   -0.2251   -1.0911    2.5330 C   0  0  0  0  0  0  0  0  0  0  0  0
    2.9735    0.6741   -2.5621 C   0  0  0  0  0  0  0  0  0  0  0  0
   -1.3723   -0.1657   -2.4037 C   0  0  0  0  0  0  0  0  0  0  0  0
   -1.8653    2.2565    0.2137 C   0  0  0  0  0  0  0  0  0  0  0  0
    1.8476   -0.7565    1.3628 C   0  0  0  0  0  0  0  0  0  0  0  0
   -3.6063    1.1023    2.0151 C   0  0  0  0  0  0  0  0  0  0  0  0
    0.4056   -2.0937    3.2972 C   0  0  0  0  0  0  0  0  0  0  0  0
   -3.1494    2.7827    0.3715 C   0  0  0  0  0  0  0  0  0  0  0  0
   -4.0236    2.2029    1.2742 C   0  0  0  0  0  0  0  0  0  0  0  0
    2.4651   -1.7512    2.1246 C   0  0  0  0  0  0  0  0  0  0  0  0
    1.7431   -2.4194    3.0979 C   0  0  0  0  0  0  0  0  0  0  0  0
    4.8947    0.4941   -1.1834 C   0  0  0  0  0  0  0  0  0  0  0  0
   -2.8042   -1.9601   -1.8083 C   0  0  0  0  0  0  0  0  0  0  0  0
   -4.8622    4.3494   -0.1454 C   0  0  0  0  0  0  0  0  0  0  0  0
    6.7170    0.4988    0.5137 C   0  0  0  0  0  0  0  0  0  0  0  0
   -4.2623   -3.9598   -1.5329 C   0  0  0  0  0  0  0  0  0  0  0  0
    6.7767   -0.9309    1.0108 C   0  0  0  0  0  0  0  0  0  0  0  0
   -3.4619   -4.8948   -0.6500 C   0  0  0  0  0  0  0  0  0  0  0  0
  1 17  1  0
  1 18  1  0
  2 14  2  0
  3 19  1  0
  3 29  1  0
  4 20  1  0
  4 30  1  0
  5 25  1  0
  5 31  1  0
  6 29  2  0
  7 30  2  0
  8 12  1  0
  8 13  1  0
  8 14  1  0
  9 14  1  0
  9 15  1  0
  9 16  1  0
 10 29  1  0
 10 32  1  0
 11 30  1  0
 11 33  1  0
 12 17  2  0
 12 21  1  0
 13 18  2  0
 13 22  1  0
 15 19  1  0
 16 20  1  0
 17 23  1  0
 18 24  1  0
 21 25  2  0
 22 27  2  0
 23 26  2  0
 24 28  2  0
 25 26  1  0
 27 28  1  0
 32 34  1  0
 33 35  1  0
M  END
>  <PUBCHEM_COMPOUND_CID>  (1) 
47567

>  <PUBCHEM_CONFORMER_RMSD>  (1) 
1.2

>  <PUBCHEM_CONFORMER_DIVERSEORDER>  (1) 
1
36
39
66
80
12
76
103
53
38
82
59
71
21
90
17
51
29
47
89
2
68
70
49
87
95
100
46
64
27
37
63
31
8
77
25
91
50
23
35
60
75
97
84
30
20
96
79
32
54
88
7
48
86
99
3
85
10
61
98
94
26
16
13
102
81
56
19
92
101
104
14
74
43
72
58
55
44
4
11
83
69
65
62
73
5
78
28
9
93
40
24
57
15
67
33
45
52
42
41
34
22
6
18

>  <PUBCHEM_MMFF94_PARTIAL_CHARGES>  (1) 
42
1 -0.2
10 -0.73
11 -0.73
12 0.12
13 0.12
14 0.69
15 0.3
16 0.3
17 0.1
18 0.1
19 0.28
2 -0.57
20 0.28
21 -0.15
22 -0.15
23 -0.15
24 -0.15
25 0.08
26 -0.15
27 -0.15
28 -0.15
29 0.78
3 -0.43
30 0.78
31 0.28
32 0.3
33 0.3
4 -0.43
44 0.15
45 0.15
46 0.15
47 0.15
48 0.15
49 0.15
5 -0.36
50 0.15
54 0.37
55 0.37
6 -0.57
7 -0.57
8 -0.29
9 -0.66

>  <PUBCHEM_EFFECTIVE_ROTOR_COUNT>  (1) 
15.4

>  <PUBCHEM_PHARMACOPHORE_FEATURES>  (1) 
9
1 10 donor
1 11 donor
1 2 acceptor
1 5 acceptor
1 6 acceptor
1 7 acceptor
6 1 8 12 13 17 18 rings
6 12 17 21 23 25 26 rings
6 13 18 22 24 27 28 rings

>  <PUBCHEM_HEAVY_ATOM_COUNT>  (1) 
35

>  <PUBCHEM_ATOM_DEF_STEREO_COUNT>  (1) 
0

>  <PUBCHEM_ATOM_UDEF_STEREO_COUNT>  (1) 
0

>  <PUBCHEM_BOND_DEF_STEREO_COUNT>  (1) 
0

>  <PUBCHEM_BOND_UDEF_STEREO_COUNT>  (1) 
0

>  <PUBCHEM_ISOTOPIC_ATOM_COUNT>  (1) 
0

>  <PUBCHEM_COMPONENT_COUNT>  (1) 
1

>  <PUBCHEM_CACTVS_TAUTO_COUNT>  (1) 
3

>  <PUBCHEM_CONFORMER_ID>  (1) 
0000B9CF00000001

>  <PUBCHEM_MMFF94_ENERGY>  (1) 
102.2225

>  <PUBCHEM_FEATURE_SELFOVERLAP>  (1) 
45.703

>  <PUBCHEM_SHAPE_FINGERPRINT>  (1) 
10258939 38 17914606409454988076
10290309 65 16128667366504028164
11578080 2 15910233781497990369
11582403 64 18264504909316391757
12156800 1 17988063535624274959
12422481 6 16628859463068946159
12788726 201 18410845573941868303
15328829 1 18260539014072050807
15484559 13 14431028778549057668
18603816 31 18263940864900918310
23419403 2 15811183718717005581
23536364 44 17971189472327902027
469060 322 17842867643281544550
563151 248 18336271145726036186

>  <PUBCHEM_SHAPE_MULTIPOLES>  (1) 
668.99
11.03
4.62
3.75
18.14
1.7
0.24
-2.55
1.64
-9.3
0.86
-0.77
2.75
-5.07

>  <PUBCHEM_SHAPE_SELFOVERLAP>  (1) 
1384.595

>  <PUBCHEM_SHAPE_VOLUME>  (1) 
382.2

>  <PUBCHEM_COORDINATE_TYPE>  (1) 
2
5
10

$$$$
