47575
     RDKit          3D

 21 22  0  0  0  0  0  0  0  0999 V2000
    3.3834   -0.7911    1.2135 O   0  0  0  0  0  0  0  0  0  0  0  0
    3.2987   -0.9186   -1.1921 O   0  0  0  0  0  0  0  0  0  0  0  0
   -1.6666   -0.2719    0.2185 N   0  0  0  0  0  0  0  0  0  0  0  0
   -5.3785    0.0312    0.3621 N   0  0  0  0  0  0  0  0  0  0  0  0
    3.1149   -1.6252    0.0595 C   0  0  0  0  0  0  0  0  0  0  0  0
    1.6647   -2.1016    0.1358 C   0  0  0  0  0  0  0  0  0  0  0  0
    0.6954   -0.9226    0.1460 C   0  0  0  0  0  0  0  0  0  0  0  0
   -0.7527   -1.4077    0.1884 C   0  0  0  0  0  0  0  0  0  0  0  0
    4.0761   -2.8127    0.0886 C   0  0  0  0  0  0  0  0  0  0  0  0
   -3.0510   -0.7202    0.2698 C   0  0  0  0  0  0  0  0  0  0  0  0
   -3.9909    0.4801    0.3287 C   0  0  0  0  0  0  0  0  0  0  0  0
    3.7187    0.3885    0.6209 C   0  0  0  0  0  0  0  0  0  0  0  0
    3.6704    0.3156   -0.7523 C   0  0  0  0  0  0  0  0  0  0  0  0
   -5.8266   -0.3558   -0.9767 C   0  0  0  0  0  0  0  0  0  0  0  0
   -6.2454    1.0779    0.9053 C   0  0  0  0  0  0  0  0  0  0  0  0
    4.0732    1.5504    1.2745 C   0  0  0  0  0  0  0  0  0  0  0  0
    3.9741    1.4007   -1.5483 C   0  0  0  0  0  0  0  0  0  0  0  0
   -7.2495   -0.8873   -0.9470 C   0  0  0  0  0  0  0  0  0  0  0  0
   -6.2298    2.3156    0.0244 C   0  0  0  0  0  0  0  0  0  0  0  0
    4.3853    2.6645    0.4919 C   0  0  0  0  0  0  0  0  0  0  0  0
    4.3361    2.5901   -0.9115 C   0  0  0  0  0  0  0  0  0  0  0  0
  1  5  1  0
  1 12  1  0
  2  5  1  0
  2 13  1  0
  3  8  1  0
  3 10  1  0
  4 11  1  0
  4 14  1  0
  4 15  1  0
  5  6  1  0
  5  9  1  0
  6  7  1  0
  7  8  1  0
 10 11  1  0
 12 13  2  0
 12 16  1  0
 13 17  1  0
 14 18  1  0
 15 19  1  0
 16 20  2  0
 17 21  2  0
 20 21  1  0
M  END
>  <PUBCHEM_COMPOUND_CID>  (1) 
47575

>  <PUBCHEM_CONFORMER_RMSD>  (1) 
1

>  <PUBCHEM_CONFORMER_DIVERSEORDER>  (1) 
1
17
25
50
35
4
29
23
61
46
9
70
6
43
41
5
76
91
54
85
53
71
14
52
77
60
86
40
19
93
24
3
32
11
26
82
8
59
78
62
80
10
42
21
68
12
88
57
34
83
36
55
87
44
15
65
73
7
31
92
75
63
72
69
67
38
13
84
49
56
18
90
16
22
39
74
58
30
45
79
81
48
51
28
37
2
47
27
66
20
64
33
89

>  <PUBCHEM_MMFF94_PARTIAL_CHARGES>  (1) 
21
1 -0.36
10 0.27
11 0.27
12 0.08
13 0.08
14 0.27
15 0.27
16 -0.15
17 -0.15
2 -0.36
20 -0.15
21 -0.15
3 -0.9
35 0.36
4 -0.81
40 0.15
41 0.15
48 0.15
49 0.15
5 0.56
8 0.27

>  <PUBCHEM_EFFECTIVE_ROTOR_COUNT>  (1) 
9.6

>  <PUBCHEM_PHARMACOPHORE_FEATURES>  (1) 
7
1 1 acceptor
1 2 acceptor
1 3 cation
1 3 donor
1 4 cation
5 1 2 5 12 13 rings
6 12 13 16 17 20 21 rings

>  <PUBCHEM_HEAVY_ATOM_COUNT>  (1) 
21

>  <PUBCHEM_ATOM_DEF_STEREO_COUNT>  (1) 
0

>  <PUBCHEM_ATOM_UDEF_STEREO_COUNT>  (1) 
0

>  <PUBCHEM_BOND_DEF_STEREO_COUNT>  (1) 
0

>  <PUBCHEM_BOND_UDEF_STEREO_COUNT>  (1) 
0

>  <PUBCHEM_ISOTOPIC_ATOM_COUNT>  (1) 
0

>  <PUBCHEM_COMPONENT_COUNT>  (1) 
1

>  <PUBCHEM_CACTVS_TAUTO_COUNT>  (1) 
1

>  <PUBCHEM_CONFORMER_ID>  (1) 
0000B9D700000001

>  <PUBCHEM_MMFF94_ENERGY>  (1) 
33.8064

>  <PUBCHEM_FEATURE_SELFOVERLAP>  (1) 
35.674

>  <PUBCHEM_SHAPE_FINGERPRINT>  (1) 
10498660 4 18128264565568618864
10595046 47 18342172281015602063
125118 31 18261676970475014645
12616971 3 18201146672878734735
13533116 47 18336830801207595283
13561361 72 17532647941039870229
13878862 14 18262783091234117757
13955234 65 18041839497950292419
13965767 371 17970332919037295076
14461889 52 18042409200024579275
14528608 73 18272371979663945879
14774955 27 18335138743017025092
15183329 4 17560805416431082233
15210252 30 18338802333432229024
17810953 82 18408325484184236368
17834072 33 18202280299779720207
17844677 252 18339928108868356857
20157964 124 18334855030642226759
23081809 10 18130787842002365947
23559900 14 17749685012185950066
270888 7 18191871347759372068
3004659 81 18130788915085151110
328310 630 18341615894036199961
3472631 163 18271246152581864444
34797466 226 16917071113621799709
44317340 157 18342460309996121499
44555599 121 18198629839808983433
465052 167 8286204959073009376
5104073 3 18113339730071723947
513532 50 17847067683948801092
57091435 61 18340484577284229200
960060 61 12967130536026012184

>  <PUBCHEM_SHAPE_MULTIPOLES>  (1) 
410.47
18.52
2.88
1.16
35.7
0.54
0.16
7.18
1.82
-3.93
-0.01
-0.65
0.34
-1.05

>  <PUBCHEM_SHAPE_SELFOVERLAP>  (1) 
835.276

>  <PUBCHEM_SHAPE_VOLUME>  (1) 
241.1

>  <PUBCHEM_COORDINATE_TYPE>  (1) 
2
5
10

$$$$
