47572
     RDKit          3D

 38 45  0  0  0  0  0  0  0  0999 V2000
    1.4898   -0.7685    0.0016 C   0  0  0  0  0  0  0  0  0  0  0  0
    0.1967   -1.3558    0.0014 C   0  0  0  0  0  0  0  0  0  0  0  0
   -0.8092    0.8956   -0.0003 C   0  0  0  0  0  0  0  0  0  0  0  0
   -0.9632   -0.5162    0.0004 C   0  0  0  0  0  0  0  0  0  0  0  0
    1.6438    0.6434    0.0008 C   0  0  0  0  0  0  0  0  0  0  0  0
    0.4838    1.4830   -0.0002 C   0  0  0  0  0  0  0  0  0  0  0  0
    2.6482   -1.6069    0.0027 C   0  0  0  0  0  0  0  0  0  0  0  0
   -1.9675    1.7340   -0.0011 C   0  0  0  0  0  0  0  0  0  0  0  0
    0.1283   -2.7723    0.0020 C   0  0  0  0  0  0  0  0  0  0  0  0
    2.9681    1.1509    0.0009 C   0  0  0  0  0  0  0  0  0  0  0  0
   -3.2478    1.1774   -0.0011 C   0  0  0  0  0  0  0  0  0  0  0  0
   -2.2874   -1.0237    0.0002 C   0  0  0  0  0  0  0  0  0  0  0  0
    4.0886    0.3238    0.0020 C   0  0  0  0  0  0  0  0  0  0  0  0
    0.5523    2.8994   -0.0010 C   0  0  0  0  0  0  0  0  0  0  0  0
    3.9283   -1.0503    0.0030 C   0  0  0  0  0  0  0  0  0  0  0  0
    2.5192   -2.9969    0.0035 C   0  0  0  0  0  0  0  0  0  0  0  0
    1.2641   -3.5783    0.0030 C   0  0  0  0  0  0  0  0  0  0  0  0
   -3.4080   -0.1966   -0.0004 C   0  0  0  0  0  0  0  0  0  0  0  0
   -1.8386    3.1241   -0.0021 C   0  0  0  0  0  0  0  0  0  0  0  0
   -1.0620   -3.6028    0.0000 C   0  0  0  0  0  0  0  0  0  0  0  0
   -0.5836    3.7054   -0.0020 C   0  0  0  0  0  0  0  0  0  0  0  0
   -4.4655    1.9734    0.0000 C   0  0  0  0  0  0  0  0  0  0  0  0
    5.4164    0.8992    0.0003 C   0  0  0  0  0  0  0  0  0  0  0  0
   -1.6319   -4.0000    1.2071 C   0  0  0  0  0  0  0  0  0  0  0  0
   -1.6288   -3.9985   -1.2088 C   0  0  0  0  0  0  0  0  0  0  0  0
   -5.0414    2.3510    1.2084 C   0  0  0  0  0  0  0  0  0  0  0  0
   -5.0437    2.3503   -1.2076 C   0  0  0  0  0  0  0  0  0  0  0  0
    6.0574    1.1772    1.2075 C   0  0  0  0  0  0  0  0  0  0  0  0
    6.0548    1.1757   -1.2084 C   0  0  0  0  0  0  0  0  0  0  0  0
   -2.7759   -4.7981    1.2052 C   0  0  0  0  0  0  0  0  0  0  0  0
   -2.7729   -4.7965   -1.2107 C   0  0  0  0  0  0  0  0  0  0  0  0
   -6.2089    3.1144    1.2093 C   0  0  0  0  0  0  0  0  0  0  0  0
   -6.2111    3.1136   -1.2067 C   0  0  0  0  0  0  0  0  0  0  0  0
   -3.3464   -5.1962   -0.0036 C   0  0  0  0  0  0  0  0  0  0  0  0
    7.3373    1.7317    1.2059 C   0  0  0  0  0  0  0  0  0  0  0  0
    7.3347    1.7301   -1.2101 C   0  0  0  0  0  0  0  0  0  0  0  0
   -6.7937    3.4956    0.0019 C   0  0  0  0  0  0  0  0  0  0  0  0
    7.9759    2.0082   -0.0030 C   0  0  0  0  0  0  0  0  0  0  0  0
  1  2  2  0
  1  5  1  0
  1  7  1  0
  2  4  1  0
  2  9  1  0
  3  4  1  0
  3  6  2  0
  3  8  1  0
  4 12  2  0
  5  6  1  0
  5 10  2  0
  6 14  1  0
  7 15  1  0
  7 16  2  0
  8 11  1  0
  8 19  2  0
  9 17  2  0
  9 20  1  0
 10 13  1  0
 11 18  2  0
 11 22  1  0
 12 18  1  0
 13 15  2  0
 13 23  1  0
 14 21  2  0
 16 17  1  0
 19 21  1  0
 20 24  2  0
 20 25  1  0
 22 26  2  0
 22 27  1  0
 23 28  2  0
 23 29  1  0
 24 30  1  0
 25 31  2  0
 26 32  1  0
 27 33  2  0
 28 35  1  0
 29 36  2  0
 30 34  2  0
 31 34  1  0
 32 37  2  0
 33 37  1  0
 35 38  2  0
 36 38  1  0
M  END
>  <PUBCHEM_COMPOUND_CID>  (1) 
47572

>  <PUBCHEM_CONFORMER_RMSD>  (1) 
0.8

>  <PUBCHEM_CONFORMER_DIVERSEORDER>  (1) 
1

>  <PUBCHEM_MMFF94_PARTIAL_CHARGES>  (1) 
48
10 -0.15
12 -0.15
14 -0.15
15 -0.15
16 -0.15
17 -0.15
18 -0.15
19 -0.15
21 -0.15
24 -0.15
25 -0.15
26 -0.15
27 -0.15
28 -0.15
29 -0.15
30 -0.15
31 -0.15
32 -0.15
33 -0.15
34 -0.15
35 -0.15
36 -0.15
37 -0.15
38 -0.15
39 0.15
40 0.15
41 0.15
42 0.15
43 0.15
44 0.15
45 0.15
46 0.15
47 0.15
48 0.15
49 0.15
50 0.15
51 0.15
52 0.15
53 0.15
54 0.15
55 0.15
56 0.15
57 0.15
58 0.15
59 0.15
60 0.15
61 0.15
62 0.15

>  <PUBCHEM_EFFECTIVE_ROTOR_COUNT>  (1) 
3

>  <PUBCHEM_PHARMACOPHORE_FEATURES>  (1) 
8
6 1 2 3 4 5 6 rings
6 1 2 7 9 16 17 rings
6 1 5 7 10 13 15 rings
6 20 24 25 30 31 34 rings
6 22 26 27 32 33 37 rings
6 23 28 29 35 36 38 rings
6 3 4 8 11 12 18 rings
6 3 6 8 14 19 21 rings

>  <PUBCHEM_HEAVY_ATOM_COUNT>  (1) 
38

>  <PUBCHEM_ATOM_DEF_STEREO_COUNT>  (1) 
0

>  <PUBCHEM_ATOM_UDEF_STEREO_COUNT>  (1) 
0

>  <PUBCHEM_BOND_DEF_STEREO_COUNT>  (1) 
0

>  <PUBCHEM_BOND_UDEF_STEREO_COUNT>  (1) 
0

>  <PUBCHEM_ISOTOPIC_ATOM_COUNT>  (1) 
0

>  <PUBCHEM_COMPONENT_COUNT>  (1) 
1

>  <PUBCHEM_CACTVS_TAUTO_COUNT>  (1) 
1

>  <PUBCHEM_CONFORMER_ID>  (1) 
0000B9D400000001

>  <PUBCHEM_MMFF94_ENERGY>  (1) 
175.2161

>  <PUBCHEM_FEATURE_SELFOVERLAP>  (1) 
40.753

>  <PUBCHEM_SHAPE_FINGERPRINT>  (1) 
10050765 1 18410575098588055382
10190206 1 18339631352424855687
102385 1 17978511163191389913
10290309 65 18192429675911017549
10411042 1 17834114530039817290
10675989 125 17978509733066617245
10864689 126 18341334405879363592
10906281 52 18410299081686083264
10940486 97 18262521514841519541
11007060 377 18342737446844977257
11062273 19 17184749091614833446
11135609 187 18338793399984512529
11135926 11 18336820892755298436
11136131 41 18116992195856070027
11991303 11 18333453135883541214
12440605 4 17902813073289937584
12522641 68 18272930501211167471
12677640 9 18268431415953367213
12788726 201 18117269479704439466
13140716 1 18123192569425898762
13540713 4 18271261473226744094
13540713 5 18262500564529204098
13782708 43 17702671102922866182
13911987 19 18336253545256695053
14040222 383 18340764931211035905
14068700 675 17907854351145710582
14068700 686 18046348531033188109
14294032 229 18335427897701417612
14415360 78 18336247003942472973
14790565 3 18268433421407455009
14937079 2 18050286965063077506
15276724 80 17910119341684423124
15324884 4 17901705646121622891
15400415 2 18266740169369561185
15439362 3 18267585711001233254
15483637 11 18337954622297246275
15484559 13 18125439714007180303
15927050 60 18411981347193080231
16087824 20 18339078294298399487
18365409 1 18412544345039157469
19319366 153 18196362624898171495
20642791 178 18188502383575173484
22223350 30 18269545186766876792
22311459 1 18338517572657356179
23516275 137 16916804928422741455
3103668 31 18265330793088939567
4073 2 18263650559761376121
4403749 210 18335140895502795145
4516262 110 18196088838652483457
504843 32 18335417972322257255
5171179 24 17769651237413737520
6057620 51 18270954632637328597
9896288 288 18263083382822099378
9961470 85 18411417277002020958

>  <PUBCHEM_SHAPE_MULTIPOLES>  (1) 
782.02
16.38
7.36
1.08
20.28
9.52
0
-21.52
0
-11.58
0
-0.17
0.03
-0.01

>  <PUBCHEM_SHAPE_SELFOVERLAP>  (1) 
1830.483

>  <PUBCHEM_SHAPE_VOLUME>  (1) 
358.7

>  <PUBCHEM_COORDINATE_TYPE>  (1) 
2
5
10

$$$$
