4758
     RDKit          3D

 25 27  0  0  1  0  0  0  0  0999 V2000
    2.8785    1.0399    1.6605 S   0  0  0  0  0  0  0  0  0  0  0  0
    2.2613    0.8268   -2.6718 O   0  0  0  0  0  0  0  0  0  0  0  0
    4.3843   -1.8561    1.1162 O   0  0  0  0  0  0  0  0  0  0  0  0
    5.7144   -1.8974   -0.7449 O   0  0  0  0  0  0  0  0  0  0  0  0
   -1.2652    0.4331    1.3281 O   0  0  0  0  0  0  0  0  0  0  0  0
   -3.5211   -0.8435    0.6970 O   0  0  0  0  0  0  0  0  0  0  0  0
    2.8362   -0.2182   -0.6370 N   0  0  0  0  0  0  0  0  0  0  0  0
   -0.2662   -0.0086   -0.7194 N   0  0  0  0  0  0  0  0  0  0  0  0
    1.9395   -0.0231    0.5011 C   0  0  0  0  0  0  0  0  0  0  0  0
    4.4185    1.0597    0.6141 C   0  0  0  0  0  0  0  0  0  0  0  0
    4.2624   -0.0791   -0.4239 C   0  0  0  0  0  0  0  0  0  0  0  0
    0.9875    0.7058   -0.4622 C   0  0  0  0  0  0  0  0  0  0  0  0
    2.0699    0.4651   -1.5332 C   0  0  0  0  0  0  0  0  0  0  0  0
    4.4863    2.4318   -0.0785 C   0  0  0  0  0  0  0  0  0  0  0  0
    5.6386    0.9091    1.5300 C   0  0  0  0  0  0  0  0  0  0  0  0
    4.8436   -1.4092    0.0287 C   0  0  0  0  0  0  0  0  0  0  0  0
   -1.3006   -0.0840    0.2135 C   0  0  0  0  0  0  0  0  0  0  0  0
   -2.5059   -0.8629   -0.2925 C   0  0  0  0  0  0  0  0  0  0  0  0
   -2.1417   -2.3122   -0.5727 C   0  0  0  0  0  0  0  0  0  0  0  0
   -4.7107   -0.2907    0.3921 C   0  0  0  0  0  0  0  0  0  0  0  0
   -4.7930    1.0563    0.0117 C   0  0  0  0  0  0  0  0  0  0  0  0
   -5.8858   -1.0530    0.4512 C   0  0  0  0  0  0  0  0  0  0  0  0
   -6.0252    1.6293   -0.3032 C   0  0  0  0  0  0  0  0  0  0  0  0
   -7.1181   -0.4802    0.1361 C   0  0  0  0  0  0  0  0  0  0  0  0
   -7.1877    0.8610   -0.2409 C   0  0  0  0  0  0  0  0  0  0  0  0
  1  9  1  0
  1 10  1  0
  2 13  2  0
  3 16  1  0
  4 16  2  0
  5 17  2  0
  6 18  1  0
  6 20  1  0
  7  9  1  0
  7 11  1  0
  7 13  1  0
  8 12  1  0
  8 17  1  0
  9 12  1  0
 10 11  1  0
 10 14  1  0
 10 15  1  0
 11 16  1  0
 12 13  1  0
 17 18  1  0
 18 19  1  0
 20 21  2  0
 20 22  1  0
 21 23  1  0
 22 24  2  0
 23 25  2  0
 24 25  1  0
M  CHG  1   3  -1
M  END
>  <PUBCHEM_COMPOUND_CID>  (1) 
4758

>  <PUBCHEM_CONFORMER_RMSD>  (1) 
1

>  <PUBCHEM_CONFORMER_DIVERSEORDER>  (1) 
1
354
519
150
489
432
121
172
21
221
567
349
67
419
173
27
89
462
15
189
255
700
50
78
219
658
324
311
37
209
599
103
69
701
188
10
417
520
133
623
17
254
296
612
139
175
286
475
257
510
224
331
155
642
579
566
433
199
120
414
468
195
248
640
369
65
297
412
43
206
270
73
708
34
231
358
549
184
190
64
469
182
214
56
305
208
416
265
443
333
666
23
40
2
201
264
183
115
58
187
277
275
94
49
234
62
285
71
156
397
695
30
628
705
672
164
222
14
431
577
351
424
86
193
342
9
153
107
404
6
434
76
449
693
33
129
138
25
571
294
212
426
39
698
84
8
112
42
99
36
624
506
68
54
22
124
389
215
293
232
573
322
29
18
367
31
151
82
559
19
268
543
317
20
13
11
91

>  <PUBCHEM_MMFF94_PARTIAL_CHARGES>  (1) 
28
1 -0.45
10 0.23
11 0.19
12 0.28
13 0.58
16 0.91
17 0.57
18 0.34
2 -0.57
20 0.08
21 -0.15
22 -0.15
23 -0.15
24 -0.15
25 -0.15
3 -0.9
35 0.37
4 -0.9
40 0.15
41 0.15
42 0.15
43 0.15
44 0.15
5 -0.57
6 -0.36
7 -0.59
8 -0.65
9 0.44

>  <PUBCHEM_EFFECTIVE_ROTOR_COUNT>  (1) 
6.8

>  <PUBCHEM_PHARMACOPHORE_FEATURES>  (1) 
11
1 2 acceptor
1 3 acceptor
1 4 acceptor
1 5 acceptor
1 6 acceptor
1 8 donor
3 10 14 15 hydrophobe
3 3 4 16 anion
4 7 9 12 13 rings
6 20 21 22 23 24 25 rings
7 1 7 9 10 11 12 13 rings

>  <PUBCHEM_HEAVY_ATOM_COUNT>  (1) 
25

>  <PUBCHEM_ATOM_DEF_STEREO_COUNT>  (1) 
0

>  <PUBCHEM_ATOM_UDEF_STEREO_COUNT>  (1) 
4

>  <PUBCHEM_BOND_DEF_STEREO_COUNT>  (1) 
0

>  <PUBCHEM_BOND_UDEF_STEREO_COUNT>  (1) 
0

>  <PUBCHEM_ISOTOPIC_ATOM_COUNT>  (1) 
0

>  <PUBCHEM_COMPONENT_COUNT>  (1) 
1

>  <PUBCHEM_CACTVS_TAUTO_COUNT>  (1) 
2

>  <PUBCHEM_CONFORMER_ID>  (1) 
0000129600000001

>  <PUBCHEM_MMFF94_ENERGY>  (1) 
75.4628

>  <PUBCHEM_FEATURE_SELFOVERLAP>  (1) 
59.856

>  <PUBCHEM_SHAPE_FINGERPRINT>  (1) 
10366900 7 15625949767320747842
11719270 70 16845291618505441391
11796584 16 18412829092433566746
12166972 35 18334299760032730717
12236239 1 18040154033114217065
12596602 18 18261109703651673769
12788726 201 17489877016107143377
13533116 47 18273216361571065006
14251758 9 18186518787436180479
14341114 176 18273496780112018936
14863182 85 15502362427814320304
15142383 8 16443333261450720173
15183329 4 17095526180126296867
1577012 14 17676779742602341557
17349148 13 16774083985642008305
19489759 90 18407761435388808177
20281389 69 18408040698246663449
20511986 3 18059278937935632575
21315764 268 18409162216997233709
21859007 373 18264479603532640277
22224240 67 14620504611123977590
23522609 53 14418710077873209935
23536379 177 18334858312213213577
23559900 14 17702966814971916644
23569943 247 17315062256160862034
300161 21 17988920110931984730
3004659 81 18409451366984946050
4072396 5 16486971778629988406
4073 2 18041564766140301290
5104073 3 16081942580057131785
5283173 99 17917433086520934057
59755656 215 18336550404341827983
8509985 295 17632574959591056690

>  <PUBCHEM_SHAPE_MULTIPOLES>  (1) 
479.03
18.63
1.89
1.39
21.31
0.3
-0.42
-1.63
2.17
-1.3
-0.01
-1.7
-0.27
0.67

>  <PUBCHEM_SHAPE_SELFOVERLAP>  (1) 
1002.392

>  <PUBCHEM_SHAPE_VOLUME>  (1) 
272.7

>  <PUBCHEM_COORDINATE_TYPE>  (1) 
2
5
10

$$$$
