4759
     RDKit          3D

 25 27  0  0  1  0  0  0  0  0999 V2000
   -2.6805    0.3917   -2.1133 S   0  0  0  0  0  0  0  0  0  0  0  0
   -2.6321   -2.5328    1.1699 O   0  0  0  0  0  0  0  0  0  0  0  0
   -3.7704    0.7778    2.4016 O   0  0  0  0  0  0  0  0  0  0  0  0
   -5.8584    0.9953    1.5131 O   0  0  0  0  0  0  0  0  0  0  0  0
    1.3965   -0.6951   -1.8004 O   0  0  0  0  0  0  0  0  0  0  0  0
    3.7926   -0.9060   -0.6466 O   0  0  0  0  0  0  0  0  0  0  0  0
   -2.6712   -0.3077    0.3839 N   0  0  0  0  0  0  0  0  0  0  0  0
    0.2607   -1.4652    0.0712 N   0  0  0  0  0  0  0  0  0  0  0  0
   -1.6727    0.0691   -0.6215 C   0  0  0  0  0  0  0  0  0  0  0  0
   -4.1048    0.9775   -1.0677 C   0  0  0  0  0  0  0  0  0  0  0  0
   -4.0615    0.0554    0.1713 C   0  0  0  0  0  0  0  0  0  0  0  0
   -1.0875   -1.3422   -0.4764 C   0  0  0  0  0  0  0  0  0  0  0  0
   -2.2106   -1.5819    0.5515 C   0  0  0  0  0  0  0  0  0  0  0  0
   -3.8763    2.4625   -0.7502 C   0  0  0  0  0  0  0  0  0  0  0  0
   -5.4056    0.8040   -1.8546 C   0  0  0  0  0  0  0  0  0  0  0  0
   -4.6882    0.6581    1.4112 C   0  0  0  0  0  0  0  0  0  0  0  0
    1.4066   -1.1257   -0.6491 C   0  0  0  0  0  0  0  0  0  0  0  0
    2.6910   -1.3227    0.1427 C   0  0  0  0  0  0  0  0  0  0  0  0
    2.8909   -2.7857    0.5048 C   0  0  0  0  0  0  0  0  0  0  0  0
    4.5690    0.0973   -0.1947 C   0  0  0  0  0  0  0  0  0  0  0  0
    4.0228    1.3651    0.0501 C   0  0  0  0  0  0  0  0  0  0  0  0
    5.9362   -0.1098    0.0372 C   0  0  0  0  0  0  0  0  0  0  0  0
    4.8272    2.4046    0.5172 C   0  0  0  0  0  0  0  0  0  0  0  0
    6.7405    0.9296    0.5044 C   0  0  0  0  0  0  0  0  0  0  0  0
    6.1860    2.1868    0.7444 C   0  0  0  0  0  0  0  0  0  0  0  0
  1  9  1  0
  1 10  1  0
  2 13  2  0
  3 16  1  0
  4 16  2  0
  5 17  2  0
  6 18  1  0
  6 20  1  0
  7  9  1  0
  7 11  1  0
  7 13  1  0
  8 12  1  0
  8 17  1  0
  9 12  1  0
 10 11  1  0
 10 14  1  0
 10 15  1  0
 11 16  1  0
 12 13  1  0
 17 18  1  0
 18 19  1  0
 20 21  2  0
 20 22  1  0
 21 23  1  0
 22 24  2  0
 23 25  2  0
 24 25  1  0
M  END
>  <PUBCHEM_COMPOUND_CID>  (1) 
4759

>  <PUBCHEM_CONFORMER_RMSD>  (1) 
1

>  <PUBCHEM_CONFORMER_DIVERSEORDER>  (1) 
1
646
318
759
780
272
382
378
251
8
820
803
130
441
79
331
97
147
401
158
210
75
259
46
335
6
263
98
383
163
312
580
499
762
12
252
31
365
500
101
303
269
28
137
245
154
743
2
63
236
724
165
476
689
433
212
51
176
533
454
19
559
525
179
15
284
268
59
599
20
398
41
362
229
765
660
626
455
692
58
379
377
81
314
475
372
215
438
103
234
376
7
104
37
156
211
299
304
60
9
632
641
173
631
787
82
273
140
285
24
258
201
658
21
260
726
10
153
148
69
265
218
107
437
17
249
361
282
13
322
622
336
280
47
3
110
78
25
182
346
43
310
267
167
38
298
514
65
490
139
145
94
124
736
553
283
190
370
89
277
83
288
39
460
29
423
184
355
72
92
241
122
181
368
113
240
567
70
545
715
522
118
11
466
32
690

>  <PUBCHEM_MMFF94_PARTIAL_CHARGES>  (1) 
29
1 -0.45
10 0.23
11 0.36
12 0.28
13 0.58
16 0.66
17 0.57
18 0.34
2 -0.57
20 0.08
21 -0.15
22 -0.15
23 -0.15
24 -0.15
25 -0.15
3 -0.65
35 0.37
37 0.5
4 -0.57
41 0.15
42 0.15
43 0.15
44 0.15
45 0.15
5 -0.57
6 -0.36
7 -0.59
8 -0.65
9 0.44

>  <PUBCHEM_EFFECTIVE_ROTOR_COUNT>  (1) 
6.8

>  <PUBCHEM_PHARMACOPHORE_FEATURES>  (1) 
11
1 2 acceptor
1 3 acceptor
1 4 acceptor
1 5 acceptor
1 6 acceptor
1 8 donor
3 10 14 15 hydrophobe
3 3 4 16 anion
4 7 9 12 13 rings
6 20 21 22 23 24 25 rings
7 1 7 9 10 11 12 13 rings

>  <PUBCHEM_HEAVY_ATOM_COUNT>  (1) 
25

>  <PUBCHEM_ATOM_DEF_STEREO_COUNT>  (1) 
0

>  <PUBCHEM_ATOM_UDEF_STEREO_COUNT>  (1) 
4

>  <PUBCHEM_BOND_DEF_STEREO_COUNT>  (1) 
0

>  <PUBCHEM_BOND_UDEF_STEREO_COUNT>  (1) 
0

>  <PUBCHEM_ISOTOPIC_ATOM_COUNT>  (1) 
0

>  <PUBCHEM_COMPONENT_COUNT>  (1) 
1

>  <PUBCHEM_CACTVS_TAUTO_COUNT>  (1) 
2

>  <PUBCHEM_CONFORMER_ID>  (1) 
0000129700000001

>  <PUBCHEM_MMFF94_ENERGY>  (1) 
73.6272

>  <PUBCHEM_FEATURE_SELFOVERLAP>  (1) 
59.627

>  <PUBCHEM_SHAPE_FINGERPRINT>  (1) 
10 15 17458347459497804108
10319926 262 16515683291142802530
10622 236 12975320875609334337
10670039 82 16487253257622364312
11089746 13 18411973646875374822
12633257 1 16225764151383483846
12788726 201 17202493199152059089
13103583 49 14562529565850356772
13402501 40 18409157823219166868
13675066 3 17531254915567705215
13914758 101 13623519161562604895
13955234 65 18265052436480551346
14178342 30 17531532082866655282
14341114 176 18186520986812792414
15163728 17 15409516281214135177
15183329 4 16415479368086913060
15188451 53 15502382265851372651
17780758 139 14779543500034409677
17857418 61 11963391851397112800
20554085 129 16588569930482010349
20645477 56 18113615668608658143
21033648 144 18412262830806626911
21033648 29 17822009766337692293
21859007 373 16445854338312644750
22122407 14 18196657285446067209
22393880 68 13182729321351147870
23198884 109 16917348138653663429
23559900 14 17677338186629186638
268830 7 18200035036420937123
2748736 6 18059002995488865696
2838139 119 18272081700173427868
2916195 48 18335416855081848253
351380 3 12035443948277847984
5104073 3 17604992516159428897
543368 44 17775282785483878673
559249 180 12901543547044076473
57724786 102 18059020466851134410
633830 44 17917158199406857334
6608658 132 16271657693406501321

>  <PUBCHEM_SHAPE_MULTIPOLES>  (1) 
479.03
16.52
2.53
1.64
13.67
0.36
-0.07
-10.35
-3.16
1.57
-0.47
-2.95
-0.34
1.26

>  <PUBCHEM_SHAPE_SELFOVERLAP>  (1) 
1000.199

>  <PUBCHEM_SHAPE_VOLUME>  (1) 
274.2

>  <PUBCHEM_COORDINATE_TYPE>  (1) 
2
5
10

$$$$
