47594
     RDKit          3D

 24 25  0  0  1  0  0  0  0  0999 V2000
   -2.5105   -0.7078    0.5028 O   0  0  0  0  0  0  0  0  0  0  0  0
    1.4678   -2.3493    1.6370 O   0  0  0  0  0  0  0  0  0  0  0  0
   -2.2015   -4.2607   -0.9842 O   0  0  0  0  0  0  0  0  0  0  0  0
   -1.8272   -2.2898   -2.0458 O   0  0  0  0  0  0  0  0  0  0  0  0
    0.0719   -1.7192   -0.1082 N   0  0  0  0  0  0  0  0  0  0  0  0
   -1.0339   -2.5812    0.2374 C   0  0  0  0  0  0  0  0  0  0  0  0
    2.2383   -0.6882    0.0533 C   0  0  0  0  0  0  0  0  0  0  0  0
    3.5362   -0.6286    0.8565 C   0  0  0  0  0  0  0  0  0  0  0  0
   -2.0292   -1.8796    1.1497 C   0  0  0  0  0  0  0  0  0  0  0  0
    1.2437   -1.6782    0.6333 C   0  0  0  0  0  0  0  0  0  0  0  0
    4.5040    0.3709    0.2780 C   0  0  0  0  0  0  0  0  0  0  0  0
   -3.4593   -0.0214    1.3073 C   0  0  0  0  0  0  0  0  0  0  0  0
   -1.7014   -2.9993   -1.0561 C   0  0  0  0  0  0  0  0  0  0  0  0
   -3.9292    1.2011    0.5750 C   0  0  0  0  0  0  0  0  0  0  0  0
    5.4247   -0.0296   -0.6904 C   0  0  0  0  0  0  0  0  0  0  0  0
    4.4792    1.6969    0.7103 C   0  0  0  0  0  0  0  0  0  0  0  0
    6.3206    0.8956   -1.2262 C   0  0  0  0  0  0  0  0  0  0  0  0
    5.3750    2.6222    0.1744 C   0  0  0  0  0  0  0  0  0  0  0  0
   -3.2563    2.4123    0.7364 C   0  0  0  0  0  0  0  0  0  0  0  0
   -5.0385    1.1265   -0.2673 C   0  0  0  0  0  0  0  0  0  0  0  0
    6.2957    2.2214   -0.7939 C   0  0  0  0  0  0  0  0  0  0  0  0
   -3.6928    3.5489    0.0556 C   0  0  0  0  0  0  0  0  0  0  0  0
   -5.4750    2.2630   -0.9481 C   0  0  0  0  0  0  0  0  0  0  0  0
   -4.8021    3.4741   -0.7867 C   0  0  0  0  0  0  0  0  0  0  0  0
  1  9  1  0
  1 12  1  0
  2 10  2  0
  3 13  1  0
  4 13  2  0
  5  6  1  0
  5 10  1  0
  6  9  1  0
  6 13  1  0
  7  8  1  0
  7 10  1  0
  8 11  1  0
 11 15  2  0
 11 16  1  0
 12 14  1  0
 14 19  2  0
 14 20  1  0
 15 17  1  0
 16 18  2  0
 17 21  2  0
 18 21  1  0
 19 22  1  0
 20 23  2  0
 22 24  2  0
 23 24  1  0
M  END
>  <PUBCHEM_COMPOUND_CID>  (1) 
47594

>  <PUBCHEM_CONFORMER_RMSD>  (1) 
1

>  <PUBCHEM_CONFORMER_DIVERSEORDER>  (1) 
1
74
49
84
155
12
156
35
58
47
34
67
172
110
33
56
21
127
53
81
15
161
78
109
136
149
158
124
105
57
75
3
51
106
119
10
6
101
147
120
36
2
113
129
100
52
138
43
27
98
122
8
146
132
4
170
93
137
104
88
40
165
140
130
83
103
133
150
144
59
28
5
134
9
64
167
50
63
73
128
107
115
42
153
112
24
37
86
126
7
11
30
32
25
142
159
19
163
121
96
164
92
45
162
169
135
91
54
65
168
151
69
14
72
26
154
22
13
48
118
94
99
97
123
76
89
66
70
157
171
85
125
39
160
148
80
46
90
117
38
29
141
79
152
31
111
87
17
116
102
108
23
139
20
143
77
114
61
68
82
62
95
18
60
41
131
16
145
44
71
166
55

>  <PUBCHEM_MMFF94_PARTIAL_CHARGES>  (1) 
36
1 -0.56
10 0.57
11 -0.14
12 0.42
13 0.66
14 -0.14
15 -0.15
16 -0.15
17 -0.15
18 -0.15
19 -0.15
2 -0.57
20 -0.15
21 -0.15
22 -0.15
23 -0.15
24 -0.15
3 -0.65
32 0.37
35 0.15
36 0.15
37 0.15
38 0.15
39 0.15
4 -0.57
40 0.15
41 0.15
42 0.15
43 0.15
44 0.15
45 0.5
5 -0.73
6 0.36
7 0.06
8 0.14
9 0.28

>  <PUBCHEM_EFFECTIVE_ROTOR_COUNT>  (1) 
10

>  <PUBCHEM_PHARMACOPHORE_FEATURES>  (1) 
8
1 1 acceptor
1 2 acceptor
1 3 acceptor
1 4 acceptor
1 5 donor
3 3 4 13 anion
6 11 15 16 17 18 21 rings
6 14 19 20 22 23 24 rings

>  <PUBCHEM_HEAVY_ATOM_COUNT>  (1) 
24

>  <PUBCHEM_ATOM_DEF_STEREO_COUNT>  (1) 
0

>  <PUBCHEM_ATOM_UDEF_STEREO_COUNT>  (1) 
1

>  <PUBCHEM_BOND_DEF_STEREO_COUNT>  (1) 
0

>  <PUBCHEM_BOND_UDEF_STEREO_COUNT>  (1) 
0

>  <PUBCHEM_ISOTOPIC_ATOM_COUNT>  (1) 
0

>  <PUBCHEM_COMPONENT_COUNT>  (1) 
1

>  <PUBCHEM_CACTVS_TAUTO_COUNT>  (1) 
2

>  <PUBCHEM_CONFORMER_ID>  (1) 
0000B9EA00000001

>  <PUBCHEM_MMFF94_ENERGY>  (1) 
52.6211

>  <PUBCHEM_FEATURE_SELFOVERLAP>  (1) 
40.656

>  <PUBCHEM_SHAPE_FINGERPRINT>  (1) 
10864689 126 18339079285971952372
10937287 8 18409164381185672498
12107183 9 18263070030121755826
13911987 19 18201719510295076033
13944108 23 17619068326400993785
14251764 30 10735290148747195885
14251764 75 18267029358128511601
14347329 18 18412262809569453488
14556957 393 18050565437086814471
15198563 99 18125997402910747655
15575132 122 18410575093738388185
16120349 189 18187361008948071237
21388113 180 18340492157737541092
245318 6 18114760234390914285
2748736 6 18261383417127172980
2838139 119 18336824199789802097
3388396 114 17401770116863395012
376196 1 18045782287139654219
44249763 50 17987507290452146904
5372103 7 17532916231184134397
6327066 14 18336826407830572157
633830 44 18260546745356887146
7288768 16 17603588534094623291
7808743 9 18410854377975784146
7970288 3 9871455522153296469

>  <PUBCHEM_SHAPE_MULTIPOLES>  (1) 
465.45
15.95
5
1.34
15.48
1.15
0.19
-18.23
3.53
-5.44
1.24
-0.28
0.63
-0.53

>  <PUBCHEM_SHAPE_SELFOVERLAP>  (1) 
968.415

>  <PUBCHEM_SHAPE_VOLUME>  (1) 
262.5

>  <PUBCHEM_COORDINATE_TYPE>  (1) 
2
5
10

$$$$
