47615
     RDKit          3D

 14 14  0  0  0  0  0  0  0  0999 V2000
    1.1256    1.0357   -1.0321 S   0  0  0  0  0  0  0  0  0  0  0  0
   -0.5338   -1.7382   -1.5713 O   0  0  0  0  0  0  0  0  0  0  0  0
   -4.5570    1.0352   -0.4077 O   0  0  0  0  0  0  0  0  0  0  0  0
   -3.6785    0.4708    1.6078 O   0  0  0  0  0  0  0  0  0  0  0  0
    2.9408    0.0166    0.5158 N   0  0  0  0  0  0  0  0  0  0  0  0
    0.9482   -1.3125    0.1793 N   0  0  0  0  0  0  0  0  0  0  0  0
    3.5864    1.2013   -0.0370 C   0  0  0  0  0  0  0  0  0  0  0  0
    2.4701    2.1374   -0.4883 C   0  0  0  0  0  0  0  0  0  0  0  0
    1.6943   -0.2753    0.0066 C   0  0  0  0  0  0  0  0  0  0  0  0
    3.7345   -0.9154    1.2879 C   0  0  0  0  0  0  0  0  0  0  0  0
   -1.3802   -0.7298    0.4241 C   0  0  0  0  0  0  0  0  0  0  0  0
   -0.2834   -1.3246   -0.4400 C   0  0  0  0  0  0  0  0  0  0  0  0
   -2.4653   -0.0860   -0.4327 C   0  0  0  0  0  0  0  0  0  0  0  0
   -3.6017    0.4849    0.3875 C   0  0  0  0  0  0  0  0  0  0  0  0
  1  8  1  0
  1  9  1  0
  2 12  2  0
  3 14  1  0
  4 14  2  0
  5  7  1  0
  5  9  1  0
  5 10  1  0
  6  9  2  0
  6 12  1  0
  7  8  1  0
 11 12  1  0
 11 13  1  0
 13 14  1  0
M  END
>  <PUBCHEM_COMPOUND_CID>  (1) 
47615

>  <PUBCHEM_CONFORMER_RMSD>  (1) 
0.6

>  <PUBCHEM_CONFORMER_DIVERSEORDER>  (1) 
1
50
25
13
30
8
51
28
42
9
21
23
26
16
49
43
18
10
19
4
27
31
53
15
36
22
34
20
35
12
46
40
54
11
5
37
45
17
14
47
33
32
39
29
2
6
38
7
41
48
3
52
44
55
24

>  <PUBCHEM_MMFF94_PARTIAL_CHARGES>  (1) 
15
1 -0.37
10 0.37
11 0.06
12 0.72
13 0.06
14 0.66
2 -0.57
26 0.5
3 -0.65
4 -0.57
5 -0.79
6 -0.66
7 0.37
8 0.23
9 0.64

>  <PUBCHEM_EFFECTIVE_ROTOR_COUNT>  (1) 
4.8

>  <PUBCHEM_PHARMACOPHORE_FEATURES>  (1) 
6
1 2 acceptor
1 3 acceptor
1 4 acceptor
1 6 donor
3 3 4 14 anion
5 1 5 7 8 9 rings

>  <PUBCHEM_HEAVY_ATOM_COUNT>  (1) 
14

>  <PUBCHEM_ATOM_DEF_STEREO_COUNT>  (1) 
0

>  <PUBCHEM_ATOM_UDEF_STEREO_COUNT>  (1) 
0

>  <PUBCHEM_BOND_DEF_STEREO_COUNT>  (1) 
0

>  <PUBCHEM_BOND_UDEF_STEREO_COUNT>  (1) 
0

>  <PUBCHEM_ISOTOPIC_ATOM_COUNT>  (1) 
0

>  <PUBCHEM_COMPONENT_COUNT>  (1) 
1

>  <PUBCHEM_CACTVS_TAUTO_COUNT>  (1) 
1

>  <PUBCHEM_CONFORMER_ID>  (1) 
0000B9FF00000001

>  <PUBCHEM_MMFF94_ENERGY>  (1) 
28.0977

>  <PUBCHEM_FEATURE_SELFOVERLAP>  (1) 
30.504

>  <PUBCHEM_SHAPE_FINGERPRINT>  (1) 
10465860 228 18200887166369352091
10498660 4 16056324899943755433
10980938 120 18334294305513279524
11086676 242 18187353321257284720
11543360 7 13254790252810753761
11769659 78 8934735369834738756
12138202 97 16415200143140192686
12251169 10 17676774265843720891
124424 183 17385999538486814597
12616999 72 11743831482643050680
13922767 16 18334292045975483257
14178342 30 17754726453888388074
14252887 29 13045946789448502808
15653759 3 16660360372610040413
15775835 57 18340491165563282605
15852999 172 16773805830706757110
17357990 137 18271815639385670308
17844478 74 16443613667022609662
18186145 218 17631748092228696399
18511873 20 18413101780027872530
18915474 69 8574711295342195224
19107657 47 18186793673806510385
19107657 9 17988656189560608913
201361 129 18044095876831623404
20233049 118 18060701710524732264
20281407 28 13840257087434834459
20281475 54 9511461117647189469
20361792 2 11819275611233760307
21524375 3 18273493477103021487
21665062 11 18261397775477059180
21713013 43 12463567370680518537
22094290 62 18410292536229530292
22169311 14 17168146723996249169
22485316 2 10809342265129674963
23402539 116 16200145465662430992
23557571 272 16414917581526225671
351380 180 18113611262499629005
449060 23 11819267824225775330
58051976 378 11095874999865778242
7832392 63 18267019634411749636
83771 10 7997972370965413687
88987 49 17345184704822945238
94968 8 9079111154935468685

>  <PUBCHEM_SHAPE_MULTIPOLES>  (1) 
264.39
7.6
1.77
1.19
4.68
0.35
0.01
2.57
-2.71
-1.13
0.32
0.35
-0.28
-0.75

>  <PUBCHEM_SHAPE_SELFOVERLAP>  (1) 
515.267

>  <PUBCHEM_SHAPE_VOLUME>  (1) 
161.3

>  <PUBCHEM_COORDINATE_TYPE>  (1) 
2
5
10

$$$$
