47616
     RDKit          3D

 16 16  0  0  0  0  0  0  0  0999 V2000
    0.5046   -1.1249   -0.1927 O   0  0  0  0  0  0  0  0  0  0  0  0
   -1.1714   -2.3070    0.8528 O   0  0  0  0  0  0  0  0  0  0  0  0
   -3.6040   -1.4286   -0.0495 N   0  0  0  0  0  0  0  0  0  0  0  0
    2.7448   -1.8765   -0.6583 C   0  0  0  0  0  0  0  0  0  0  0  0
    1.3904   -2.2283   -0.0546 C   0  0  0  0  0  0  0  0  0  0  0  0
    3.3810   -0.7108    0.0451 C   0  0  0  0  0  0  0  0  0  0  0  0
   -1.5730   -0.0809    0.0990 C   0  0  0  0  0  0  0  0  0  0  0  0
    4.3427    1.6026    0.1407 C   0  0  0  0  0  0  0  0  0  0  0  0
    3.6997    0.4428   -0.5603 C   0  0  0  0  0  0  0  0  0  0  0  0
   -2.9401   -0.1815   -0.0680 C   0  0  0  0  0  0  0  0  0  0  0  0
   -0.7502   -1.2993    0.3062 C   0  0  0  0  0  0  0  0  0  0  0  0
   -0.9218    1.1379    0.0807 C   0  0  0  0  0  0  0  0  0  0  0  0
   -3.6860    0.9814   -0.2608 C   0  0  0  0  0  0  0  0  0  0  0  0
    3.3006    2.5499    0.7146 C   0  0  0  0  0  0  0  0  0  0  0  0
   -1.6676    2.3007   -0.1121 C   0  0  0  0  0  0  0  0  0  0  0  0
   -3.0497    2.2225   -0.2829 C   0  0  0  0  0  0  0  0  0  0  0  0
  1  5  1  0
  1 11  1  0
  2 11  2  0
  3 10  1  0
  4  5  1  0
  4  6  1  0
  6  9  2  0
  7 10  2  0
  7 11  1  0
  7 12  1  0
  8  9  1  0
  8 14  1  0
 10 13  1  0
 12 15  2  0
 13 16  2  0
 15 16  1  0
M  END
>  <PUBCHEM_COMPOUND_CID>  (1) 
47616

>  <PUBCHEM_CONFORMER_RMSD>  (1) 
0.8

>  <PUBCHEM_CONFORMER_DIVERSEORDER>  (1) 
1
21
119
115
101
52
79
58
36
56
88
62
120
90
26
50
60
15
102
103
13
122
112
44
70
18
8
48
65
121
96
7
95
63
99
14
41
31
73
9
57
43
61
89
11
19
25
47
38
67
98
78
106
75
24
100
111
16
29
116
91
74
87
49
114
80
20
110
12
23
85
66
5
53
84
107
10
37
3
113
108
4
71
2
83
55
30
35
33
6
27
68
40
17
77
92
72
105
64
32
117
54
46
109
22
82
39
86
93
28
45
94
34
76
51
97
42
104
69
81
59
118

>  <PUBCHEM_MMFF94_PARTIAL_CHARGES>  (1) 
23
1 -0.43
10 0.1
11 0.63
12 -0.15
13 -0.15
15 -0.15
16 -0.15
2 -0.57
21 0.15
24 0.15
25 0.15
26 0.15
3 -0.9
30 0.15
31 0.15
32 0.4
33 0.4
4 0.14
5 0.28
6 -0.29
7 0.09
8 0.14
9 -0.29

>  <PUBCHEM_EFFECTIVE_ROTOR_COUNT>  (1) 
6

>  <PUBCHEM_PHARMACOPHORE_FEATURES>  (1) 
5
1 14 hydrophobe
1 2 acceptor
1 3 cation
1 3 donor
6 7 10 12 13 15 16 rings

>  <PUBCHEM_HEAVY_ATOM_COUNT>  (1) 
16

>  <PUBCHEM_ATOM_DEF_STEREO_COUNT>  (1) 
0

>  <PUBCHEM_ATOM_UDEF_STEREO_COUNT>  (1) 
0

>  <PUBCHEM_BOND_DEF_STEREO_COUNT>  (1) 
0

>  <PUBCHEM_BOND_UDEF_STEREO_COUNT>  (1) 
1

>  <PUBCHEM_ISOTOPIC_ATOM_COUNT>  (1) 
0

>  <PUBCHEM_COMPONENT_COUNT>  (1) 
1

>  <PUBCHEM_CACTVS_TAUTO_COUNT>  (1) 
2

>  <PUBCHEM_CONFORMER_ID>  (1) 
0000BA0000000001

>  <PUBCHEM_MMFF94_ENERGY>  (1) 
40.9005

>  <PUBCHEM_FEATURE_SELFOVERLAP>  (1) 
25.371

>  <PUBCHEM_SHAPE_FINGERPRINT>  (1) 
10498660 4 18409730664350057556
10608611 8 18410576158689850006
11370993 70 18339635741781289136
11615756 256 18411706448122113736
13897977 150 18411417272042149060
14026960 21 18411984701867876278
14790565 3 18125162624577531393
15196674 1 18410575080821922260
15536298 74 18340770342959109556
17802600 8 18337388245466279574
18186145 218 18127418851721283150
19930381 70 18340483486209691464
20449540 30 18272655610550897473
20510252 161 18410862057509347067
21524375 3 18262520265026712558
22749437 52 18409448085688162028
22959321 54 18410011035540940718
23227448 37 18343016739566877518
23557571 272 18191043359162582294
23559900 14 18196929977119711542
3187 122 17825105067273332361
351380 180 18411415103568792330
3524813 1 18200029689561446864
5104073 3 18335987484331332931
5262128 65 17558284119945538334
526903 126 18409450263030469521
6333272 397 18335140851919963274
9709674 26 18411986866563204510
9981440 41 18334852853225885146

>  <PUBCHEM_SHAPE_MULTIPOLES>  (1) 
312.55
8.07
3.14
0.74
3.53
0.42
0.01
3.39
-0.55
0.85
0.3
0.18
-0.02
0.92

>  <PUBCHEM_SHAPE_SELFOVERLAP>  (1) 
634.079

>  <PUBCHEM_SHAPE_VOLUME>  (1) 
181.5

>  <PUBCHEM_COORDINATE_TYPE>  (1) 
2
5
10

$$$$
