47620
     RDKit          3D

 28 29  0  0  1  0  0  0  0  0999 V2000
   -5.4775   -1.0330   -1.6941 O   0  0  0  0  0  0  0  0  0  0  0  0
   -5.5135    0.8279   -0.3958 O   0  0  0  0  0  0  0  0  0  0  0  0
   -0.7611    0.2486   -1.5479 O   0  0  0  0  0  0  0  0  0  0  0  0
    1.9493   -0.5464    2.0229 O   0  0  0  0  0  0  0  0  0  0  0  0
   -2.7635    0.8796   -0.5561 N   0  0  0  0  0  0  0  0  0  0  0  0
    0.7409   -2.5293    2.0599 N   0  0  0  0  0  0  0  0  0  0  0  0
   -3.2465   -1.2552    0.5877 C   0  0  0  0  0  0  0  0  0  0  0  0
   -1.8290   -1.2497    1.1733 C   0  0  0  0  0  0  0  0  0  0  0  0
   -3.4230   -0.3961   -0.6654 C   0  0  0  0  0  0  0  0  0  0  0  0
   -1.6742   -2.1620    2.3945 C   0  0  0  0  0  0  0  0  0  0  0  0
   -0.2696   -2.1034    2.9889 C   0  0  0  0  0  0  0  0  0  0  0  0
   -4.8929   -0.1021   -0.8947 C   0  0  0  0  0  0  0  0  0  0  0  0
   -1.4693    1.0979   -1.0131 C   0  0  0  0  0  0  0  0  0  0  0  0
   -1.0266    2.5291   -0.7768 C   0  0  0  0  0  0  0  0  0  0  0  0
    1.7823   -1.7040    1.6472 C   0  0  0  0  0  0  0  0  0  0  0  0
    2.7043   -2.4083    0.6705 C   0  0  0  0  0  0  0  0  0  0  0  0
    0.1943    2.6394    0.0976 C   0  0  0  0  0  0  0  0  0  0  0  0
    2.7904   -1.7241   -0.6681 C   0  0  0  0  0  0  0  0  0  0  0  0
    0.0537    2.7468    1.4814 C   0  0  0  0  0  0  0  0  0  0  0  0
    1.4659    2.6337   -0.4757 C   0  0  0  0  0  0  0  0  0  0  0  0
    1.9017   -2.0694   -1.6863 C   0  0  0  0  0  0  0  0  0  0  0  0
    3.7585   -0.7446   -0.8899 C   0  0  0  0  0  0  0  0  0  0  0  0
    1.1845    2.8487    2.2916 C   0  0  0  0  0  0  0  0  0  0  0  0
    2.5968    2.7355    0.3346 C   0  0  0  0  0  0  0  0  0  0  0  0
    2.4559    2.8430    1.7182 C   0  0  0  0  0  0  0  0  0  0  0  0
    1.9812   -1.4356   -2.9263 C   0  0  0  0  0  0  0  0  0  0  0  0
    3.8379   -0.1107   -2.1298 C   0  0  0  0  0  0  0  0  0  0  0  0
    2.9492   -0.4562   -3.1481 C   0  0  0  0  0  0  0  0  0  0  0  0
  1 12  1  0
  2 12  2  0
  3 13  2  0
  4 15  2  0
  5  9  1  0
  5 13  1  0
  6 11  1  0
  6 15  1  0
  7  8  1  0
  7  9  1  0
  8 10  1  0
  9 12  1  0
 10 11  1  0
 13 14  1  0
 14 17  1  0
 15 16  1  0
 16 18  1  0
 17 19  2  0
 17 20  1  0
 18 21  2  0
 18 22  1  0
 19 23  1  0
 20 24  2  0
 21 26  1  0
 22 27  2  0
 23 25  2  0
 24 25  1  0
 26 28  2  0
 27 28  1  0
M  END
>  <PUBCHEM_COMPOUND_CID>  (1) 
47620

>  <PUBCHEM_CONFORMER_RMSD>  (1) 
1.4

>  <PUBCHEM_CONFORMER_DIVERSEORDER>  (1) 
1
30
49
82
135
107
10
51
23
145
46
99
15
92
64
132
12
108
37
126
96
129
67
34
91
59
44
42
161
70
2
29
154
62
35
89
159
27
155
97
148
150
41
79
93
106
121
142
77
40
146
65
90
69
20
78
80
68
102
160
58
128
147
100
6
24
43
61
137
122
114
94
152
22
5
158
143
140
123
81
105
52
28
73
134
131
38
57
75
130
163
60
56
157
151
85
119
104
98
113
127
19
109
26
4
14
45
136
101
116
36
21
48
55
118
16
83
139
63
141
17
133
8
31
110
86
117
74
54
103
71
39
115
124
87
25
149
162
47
84
76
66
144
120
9
153
32
18
72
111
33
95
3
7
11
50
53
112
125
88
138
156
13

>  <PUBCHEM_MMFF94_PARTIAL_CHARGES>  (1) 
38
1 -0.65
11 0.3
12 0.66
13 0.57
14 0.2
15 0.57
16 0.2
17 -0.14
18 -0.14
19 -0.15
2 -0.57
20 -0.15
21 -0.15
22 -0.15
23 -0.15
24 -0.15
25 -0.15
26 -0.15
27 -0.15
28 -0.15
3 -0.57
38 0.37
39 0.37
4 -0.57
44 0.5
45 0.15
46 0.15
47 0.15
48 0.15
49 0.15
5 -0.73
50 0.15
51 0.15
52 0.15
53 0.15
54 0.15
6 -0.73
9 0.36

>  <PUBCHEM_EFFECTIVE_ROTOR_COUNT>  (1) 
13

>  <PUBCHEM_PHARMACOPHORE_FEATURES>  (1) 
9
1 1 acceptor
1 2 acceptor
1 3 acceptor
1 4 acceptor
1 5 donor
1 6 donor
3 1 2 12 anion
6 17 19 20 23 24 25 rings
6 18 21 22 26 27 28 rings

>  <PUBCHEM_HEAVY_ATOM_COUNT>  (1) 
28

>  <PUBCHEM_ATOM_DEF_STEREO_COUNT>  (1) 
0

>  <PUBCHEM_ATOM_UDEF_STEREO_COUNT>  (1) 
1

>  <PUBCHEM_BOND_DEF_STEREO_COUNT>  (1) 
0

>  <PUBCHEM_BOND_UDEF_STEREO_COUNT>  (1) 
0

>  <PUBCHEM_ISOTOPIC_ATOM_COUNT>  (1) 
0

>  <PUBCHEM_COMPONENT_COUNT>  (1) 
1

>  <PUBCHEM_CACTVS_TAUTO_COUNT>  (1) 
4

>  <PUBCHEM_CONFORMER_ID>  (1) 
0000BA0400000001

>  <PUBCHEM_MMFF94_ENERGY>  (1) 
49.972

>  <PUBCHEM_FEATURE_SELFOVERLAP>  (1) 
45.73

>  <PUBCHEM_SHAPE_FINGERPRINT>  (1) 
11244481 83 18411694426207731538
12166972 35 17242438430803837898
12655364 131 15982874431418226968
12788726 201 18053398603584267713
13009979 54 17105070821213109051
13617811 41 17313099770651636269
13947920 24 17031678789953203996
14068700 675 17827065213555338954
14251757 17 17898033423117858408
15721738 202 17416131817776405927
20397935 3 18188484662681664296
20600515 1 17619319049780675408
20691752 17 17894903032268216053
20764821 26 17968092096452981123
23419403 2 17907052751592299984
238 59 17984992745576018808
238918 7 17834112322594620840
35225 105 17110499183249192632
4093350 32 18130787919491346211
469060 322 17344370881735296534
484985 159 15260624672482142222
513532 50 18340757252083348975

>  <PUBCHEM_SHAPE_MULTIPOLES>  (1) 
542.79
7.71
4.05
3.26
10.23
2.86
-0.56
-2.34
5.27
-2.63
-2.12
-1.42
-1.8
1.73

>  <PUBCHEM_SHAPE_SELFOVERLAP>  (1) 
1121.116

>  <PUBCHEM_SHAPE_VOLUME>  (1) 
307.4

>  <PUBCHEM_COORDINATE_TYPE>  (1) 
2
5
10

$$$$
