47622
     RDKit          3D

 30 31  0  0  1  0  0  0  0  0999 V2000
   -1.3106   -4.2575    0.1359 O   0  0  0  0  0  0  0  0  0  0  0  0
   -2.9577   -3.6520    1.5745 O   0  0  0  0  0  0  0  0  0  0  0  0
   -3.2675   -1.2638   -1.5631 O   0  0  0  0  0  0  0  0  0  0  0  0
    4.5505    1.0599    1.7985 O   0  0  0  0  0  0  0  0  0  0  0  0
   -2.6674   -1.0654    0.6716 N   0  0  0  0  0  0  0  0  0  0  0  0
    2.4166    1.7434    1.1865 N   0  0  0  0  0  0  0  0  0  0  0  0
   -0.4753   -1.5853    1.6833 C   0  0  0  0  0  0  0  0  0  0  0  0
    0.1435   -0.1891    1.5417 C   0  0  0  0  0  0  0  0  0  0  0  0
   -1.5184   -1.9322    0.6198 C   0  0  0  0  0  0  0  0  0  0  0  0
    1.2222    0.1049    2.5893 C   0  0  0  0  0  0  0  0  0  0  0  0
    1.7889    1.5160    2.4593 C   0  0  0  0  0  0  0  0  0  0  0  0
   -2.0337   -3.3423    0.8336 C   0  0  0  0  0  0  0  0  0  0  0  0
   -3.4560   -0.8010   -0.4412 C   0  0  0  0  0  0  0  0  0  0  0  0
   -4.5978    0.1434   -0.1101 C   0  0  0  0  0  0  0  0  0  0  0  0
   -4.5447    1.4312   -0.9300 C   0  0  0  0  0  0  0  0  0  0  0  0
    4.1685    1.8203   -0.4680 C   0  0  0  0  0  0  0  0  0  0  0  0
    3.7657    1.4925    0.9588 C   0  0  0  0  0  0  0  0  0  0  0  0
    4.7158    0.6041   -1.2126 C   0  0  0  0  0  0  0  0  0  0  0  0
   -3.2592    2.1837   -0.7030 C   0  0  0  0  0  0  0  0  0  0  0  0
    3.6927   -0.4980   -1.3077 C   0  0  0  0  0  0  0  0  0  0  0  0
   -3.1777    3.1340    0.3150 C   0  0  0  0  0  0  0  0  0  0  0  0
   -2.1505    1.9300   -1.5105 C   0  0  0  0  0  0  0  0  0  0  0  0
    3.6171   -1.4676   -0.3076 C   0  0  0  0  0  0  0  0  0  0  0  0
    2.8207   -0.5485   -2.3954 C   0  0  0  0  0  0  0  0  0  0  0  0
   -1.9878    3.8306    0.5253 C   0  0  0  0  0  0  0  0  0  0  0  0
   -0.9604    2.6266   -1.3001 C   0  0  0  0  0  0  0  0  0  0  0  0
    2.6699   -2.4878   -0.3954 C   0  0  0  0  0  0  0  0  0  0  0  0
    1.8734   -1.5687   -2.4830 C   0  0  0  0  0  0  0  0  0  0  0  0
   -0.8791    3.5769   -0.2822 C   0  0  0  0  0  0  0  0  0  0  0  0
    1.7981   -2.5384   -1.4830 C   0  0  0  0  0  0  0  0  0  0  0  0
  1 12  1  0
  2 12  2  0
  3 13  2  0
  4 17  2  0
  5  9  1  0
  5 13  1  0
  6 11  1  0
  6 17  1  0
  7  8  1  0
  7  9  1  0
  8 10  1  0
  9 12  1  0
 10 11  1  0
 13 14  1  0
 14 15  1  0
 15 19  1  0
 16 17  1  0
 16 18  1  0
 18 20  1  0
 19 21  2  0
 19 22  1  0
 20 23  2  0
 20 24  1  0
 21 25  1  0
 22 26  2  0
 23 27  1  0
 24 28  2  0
 25 29  2  0
 26 29  1  0
 27 30  2  0
 28 30  1  0
M  END
>  <PUBCHEM_COMPOUND_CID>  (1) 
47622

>  <PUBCHEM_CONFORMER_RMSD>  (1) 
1.4

>  <PUBCHEM_CONFORMER_DIVERSEORDER>  (1) 
2
19
118
154
332
10
86
134
90
250
191
246
351
252
346
256
330
103
149
1
176
54
62
16
325
289
303
45
342
136
221
27
135
119
212
349
357
5
73
233
183
196
44
67
127
84
268
304
220
227
107
239
61
317
48
217
188
60
232
30
37
224
46
216
172
261
164
315
175
31
228
290
273
17
85
291
197
206
18
98
328
155
87
23
340
334
178
6
255
300
3
215
331
123
243
8
117
49
104
75
129
51
280
57
207
181
339
147
153
288
356
208
12
336
180
173
262
249
156
240
358
190
285
79
264
56
78
121
270
292
91
254
202
95
92
287
83
282
348
81
11
115
29
276
189
63
219
231
200
311
225
179
65
140
359
251
143
34
185
151
344
128
337
4
139
214
169
257
33
182
165
354
47
28
124
99
137
39
26
296
267
295
333
142
43
195
41
318
302
160
229
237
327
35
263
253
42
177
105
14
322
114
247
313
82
201
106
245
59
299
72
171
347
100
168
163
205
157
102
141
194
58
298
131
97
353
294
108
132
338
275
242
260
278
274
203
192
20
321
101
199
38
297
306
284
222
13
148
32
213
76
150
244
258
24
312
159
146
40
55
314
308
211
109
162
144
161
22
241
281
69
266
343
9
272
323
15
234
238
152
352
88
113
130
133
52
350
66
74
324
355
204
170
25
235
223
116
93
310
122
316
96
166
226
64
198
210
138
301
21
110
265
218
89
307
279
335
293
71
145
125
70
269
77
329
50
7
305
126
271
309
36
319
259
167
345
120
94
111
80
230
283
53
236
174
184
248
68
320
193
186
286
326
187
112
158
341
277
209

>  <PUBCHEM_MMFF94_PARTIAL_CHARGES>  (1) 
40
1 -0.65
11 0.3
12 0.66
13 0.57
14 0.06
15 0.14
16 0.06
17 0.57
18 0.14
19 -0.14
2 -0.57
20 -0.14
21 -0.15
22 -0.15
23 -0.15
24 -0.15
25 -0.15
26 -0.15
27 -0.15
28 -0.15
29 -0.15
3 -0.57
30 -0.15
4 -0.57
40 0.37
41 0.37
5 -0.73
50 0.5
51 0.15
52 0.15
53 0.15
54 0.15
55 0.15
56 0.15
57 0.15
58 0.15
59 0.15
6 -0.73
60 0.15
9 0.36

>  <PUBCHEM_EFFECTIVE_ROTOR_COUNT>  (1) 
15

>  <PUBCHEM_PHARMACOPHORE_FEATURES>  (1) 
9
1 1 acceptor
1 2 acceptor
1 3 acceptor
1 4 acceptor
1 5 donor
1 6 donor
3 1 2 12 anion
6 19 21 22 25 26 29 rings
6 20 23 24 27 28 30 rings

>  <PUBCHEM_HEAVY_ATOM_COUNT>  (1) 
30

>  <PUBCHEM_ATOM_DEF_STEREO_COUNT>  (1) 
0

>  <PUBCHEM_ATOM_UDEF_STEREO_COUNT>  (1) 
1

>  <PUBCHEM_BOND_DEF_STEREO_COUNT>  (1) 
0

>  <PUBCHEM_BOND_UDEF_STEREO_COUNT>  (1) 
0

>  <PUBCHEM_ISOTOPIC_ATOM_COUNT>  (1) 
0

>  <PUBCHEM_COMPONENT_COUNT>  (1) 
1

>  <PUBCHEM_CACTVS_TAUTO_COUNT>  (1) 
4

>  <PUBCHEM_CONFORMER_ID>  (1) 
0000BA0600000002

>  <PUBCHEM_MMFF94_ENERGY>  (1) 
51.4432

>  <PUBCHEM_FEATURE_SELFOVERLAP>  (1) 
45.73

>  <PUBCHEM_SHAPE_FINGERPRINT>  (1) 
11285246 1 17766296279344451804
11828532 37 18042684095354043619
13402501 40 18343300383517968164
13617811 41 18187925033176787653
13947920 75 17749400252197029108
14251757 17 17986108513407265800
15406563 42 18338528525034990772
15876981 60 17752752808798976656
15975801 100 17315074351484735332
161222 10 17968108503207550588
20600515 1 18042390490798884293
20764821 26 18339071571476549817
23557571 272 18189345713050962438
238 59 17775280556675329248
35225 105 17897136140099113484
469060 322 15936995005923212425
508706 21 18411420622301061590

>  <PUBCHEM_SHAPE_MULTIPOLES>  (1) 
583.95
9.02
5.02
2.39
1.47
1.55
-0.4
-2.84
2.44
-3.63
-0.79
1.77
0.16
2.34

>  <PUBCHEM_SHAPE_SELFOVERLAP>  (1) 
1199.891

>  <PUBCHEM_SHAPE_VOLUME>  (1) 
332.4

>  <PUBCHEM_COORDINATE_TYPE>  (1) 
2
5
10

$$$$
