47634
     RDKit          3D

 26 29  0  0  0  0  0  0  0  0999 V2000
   -6.5384    0.6093   -1.2053 O   0  0  0  0  0  0  0  0  0  0  0  0
    6.4024   -0.5037   -0.5298 O   0  0  0  0  0  0  0  0  0  0  0  0
    3.9152    2.6608    0.0354 O   0  0  0  0  0  0  0  0  0  0  0  0
    1.7508    2.4171    0.3093 O   0  0  0  0  0  0  0  0  0  0  0  0
    0.6271    0.0981    0.2915 N   0  0  0  0  0  0  0  0  0  0  0  0
   -2.0631    0.8396    0.6030 N   0  0  0  0  0  0  0  0  0  0  0  0
    2.8948    1.9315    0.1202 N   0  0  0  0  0  0  0  0  0  0  0  0
    5.4986    0.5263   -0.3326 N   0  0  0  0  0  0  0  0  0  0  0  0
    5.7810   -1.7408   -0.5366 N   0  0  0  0  0  0  0  0  0  0  0  0
   -0.1172   -0.3410    1.4829 C   0  0  0  0  0  0  0  0  0  0  0  0
   -0.1756    0.4363   -0.8976 C   0  0  0  0  0  0  0  0  0  0  0  0
   -1.2507    0.6393    1.8057 C   0  0  0  0  0  0  0  0  0  0  0  0
   -1.3055    1.3956   -0.5190 C   0  0  0  0  0  0  0  0  0  0  0  0
    1.9289   -0.3742    0.0823 C   0  0  0  0  0  0  0  0  0  0  0  0
   -3.2636    0.1597    0.4301 C   0  0  0  0  0  0  0  0  0  0  0  0
    3.0375    0.5287   -0.0009 C   0  0  0  0  0  0  0  0  0  0  0  0
    2.1506   -1.7945   -0.0516 C   0  0  0  0  0  0  0  0  0  0  0  0
   -4.3285    0.7232   -0.3115 C   0  0  0  0  0  0  0  0  0  0  0  0
   -3.4699   -1.1241    0.9876 C   0  0  0  0  0  0  0  0  0  0  0  0
    4.2991   -0.0566   -0.2137 C   0  0  0  0  0  0  0  0  0  0  0  0
    3.4022   -2.4004   -0.2645 C   0  0  0  0  0  0  0  0  0  0  0  0
    4.4786   -1.4977   -0.3434 C   0  0  0  0  0  0  0  0  0  0  0  0
   -5.5324    0.0408   -0.4861 C   0  0  0  0  0  0  0  0  0  0  0  0
   -4.6740   -1.8064    0.8130 C   0  0  0  0  0  0  0  0  0  0  0  0
   -5.7052   -1.2239    0.0762 C   0  0  0  0  0  0  0  0  0  0  0  0
   -7.7426   -0.1434   -1.3446 C   0  0  0  0  0  0  0  0  0  0  0  0
  1 23  1  0
  1 26  1  0
  2  8  1  0
  2  9  1  0
  3  7  1  0
  4  7  2  0
  5 10  1  0
  5 11  1  0
  5 14  1  0
  6 12  1  0
  6 13  1  0
  6 15  1  0
  7 16  1  0
  8 20  2  0
  9 22  2  0
 10 12  1  0
 11 13  1  0
 14 16  2  0
 14 17  1  0
 15 18  2  0
 15 19  1  0
 16 20  1  0
 17 21  2  0
 18 23  1  0
 19 24  2  0
 20 22  1  0
 21 22  1  0
 23 25  2  0
 24 25  1  0
M  CHG  2   3  -1   7   1
M  END
>  <PUBCHEM_COMPOUND_CID>  (1) 
47634

>  <PUBCHEM_CONFORMER_RMSD>  (1) 
0.8

>  <PUBCHEM_CONFORMER_DIVERSEORDER>  (1) 
2
17
24
20
15
13
6
26
19
27
16
21
7
23
14
22
5
9
25
10
18
28
11
8
12
3
4
1

>  <PUBCHEM_MMFF94_PARTIAL_CHARGES>  (1) 
32
1 -0.36
10 0.37
11 0.37
12 0.37
13 0.37
14 0.1
15 0.1
16 0.13
17 -0.15
18 -0.15
19 -0.15
2 0.24
20 0.29
21 -0.15
22 0.29
23 0.08
24 -0.15
25 -0.15
26 0.28
3 -0.52
35 0.15
36 0.15
37 0.15
38 0.15
39 0.15
4 -0.52
40 0.15
5 -0.84
6 -0.84
7 0.91
8 -0.41
9 -0.41

>  <PUBCHEM_EFFECTIVE_ROTOR_COUNT>  (1) 
5.2

>  <PUBCHEM_PHARMACOPHORE_FEATURES>  (1) 
12
1 1 acceptor
1 3 acceptor
1 3 anion
1 4 acceptor
1 5 cation
1 6 cation
1 8 acceptor
1 9 acceptor
5 2 8 9 20 22 rings
6 14 16 17 20 21 22 rings
6 15 18 19 23 24 25 rings
6 5 6 10 11 12 13 rings

>  <PUBCHEM_HEAVY_ATOM_COUNT>  (1) 
26

>  <PUBCHEM_ATOM_DEF_STEREO_COUNT>  (1) 
0

>  <PUBCHEM_ATOM_UDEF_STEREO_COUNT>  (1) 
0

>  <PUBCHEM_BOND_DEF_STEREO_COUNT>  (1) 
0

>  <PUBCHEM_BOND_UDEF_STEREO_COUNT>  (1) 
0

>  <PUBCHEM_ISOTOPIC_ATOM_COUNT>  (1) 
0

>  <PUBCHEM_COMPONENT_COUNT>  (1) 
1

>  <PUBCHEM_CACTVS_TAUTO_COUNT>  (1) 
1

>  <PUBCHEM_CONFORMER_ID>  (1) 
0000BA1200000002

>  <PUBCHEM_MMFF94_ENERGY>  (1) 
123.8064

>  <PUBCHEM_FEATURE_SELFOVERLAP>  (1) 
61.161

>  <PUBCHEM_SHAPE_FINGERPRINT>  (1) 
10366900 7 17894922802044539968
106641 1 14692558936095875962
10835480 77 18335979869945582229
11045977 3 18334015020780063563
11315181 36 18412268345992865249
11578080 2 13769079193210270766
11719270 70 18410568462515397714
12011746 2 18113341903435483398
12166972 35 17775564238806593568
12236239 1 17560805403134470008
12516196 113 17775562035904653579
12596602 18 14764340540263152267
12916748 109 11527952265986504815
13402501 40 18333735718977969266
13533116 47 18202563998858582385
13668630 136 17561365076091200415
14251764 18 11167933663007749218
15183329 4 18261388915370367171
15961568 22 17241049936929107044
17844677 252 18412833477631839409
1813 80 15052020073630768393
18222031 100 18343303631035444410
18681886 176 18131066031049566026
200 152 18202004313106348577
20028762 73 17988924457513586470
21033650 10 16805321055516799517
21267235 1 18272379642197039814
21682296 61 17916598513997846222
221357 26 18335980891599140140
2215653 11 18335136488607600575
22393880 68 18040712593553449315
23402539 116 17457784496190060146
23559900 14 18336262427095581809
2838139 119 12179847225517311879
29717793 49 18202848742605851733
3004659 81 18334853918245469875
3009799 131 17530965774237505431
335352 9 18412270537317554636
3383291 50 13901613196147974205
3633792 109 18412539882784602365
4015057 19 18341893043679962337
4073 2 18041285451721979427
4098825 35 18340484470706417221
4325135 7 18343865506951759582
465052 167 18060142045799162686
5283173 99 18114175299122175853
59682541 52 18409439272646983319
59755656 215 18040995116148492007
6669772 16 17487041526091073280

>  <PUBCHEM_SHAPE_MULTIPOLES>  (1) 
486.69
16.97
2.12
1.12
12.03
0.19
-0.24
-3.95
6.52
-2.34
-0.06
1.23
0
1.04

>  <PUBCHEM_SHAPE_SELFOVERLAP>  (1) 
1057.401

>  <PUBCHEM_SHAPE_VOLUME>  (1) 
265.3

>  <PUBCHEM_COORDINATE_TYPE>  (1) 
2
5
10

$$$$
