47632
     RDKit          3D

 22 23  0  0  0  0  0  0  0  0999 V2000
   -4.7288    0.1473   -0.8237 O   0  0  0  0  0  0  0  0  0  0  0  0
   -5.0328   -2.1032   -0.7353 O   0  0  0  0  0  0  0  0  0  0  0  0
   -1.9252    3.0202   -0.0824 O   0  0  0  0  0  0  0  0  0  0  0  0
    0.0817    2.5452    0.6698 O   0  0  0  0  0  0  0  0  0  0  0  0
    3.9314   -0.2343   -0.4428 N   0  0  0  0  0  0  0  0  0  0  0  0
    0.7940    0.1052    1.1348 N   0  0  0  0  0  0  0  0  0  0  0  0
   -4.2377   -1.1580   -0.5359 N   0  0  0  0  0  0  0  0  0  0  0  0
   -1.0636    2.1859    0.2954 N   0  0  0  0  0  0  0  0  0  0  0  0
   -3.7189    1.0538   -0.5457 N   0  0  0  0  0  0  0  0  0  0  0  0
    3.7120    0.5957    0.7355 C   0  0  0  0  0  0  0  0  0  0  0  0
    3.0989   -0.2011    1.8912 C   0  0  0  0  0  0  0  0  0  0  0  0
    1.7651   -0.8720    1.5642 C   0  0  0  0  0  0  0  0  0  0  0  0
    4.8423   -1.3380   -0.1338 C   0  0  0  0  0  0  0  0  0  0  0  0
    4.4620    0.5675   -1.5470 C   0  0  0  0  0  0  0  0  0  0  0  0
   -0.4856   -0.2163    0.7098 C   0  0  0  0  0  0  0  0  0  0  0  0
    5.0279   -2.2494   -1.3351 C   0  0  0  0  0  0  0  0  0  0  0  0
    3.5317    1.7200   -1.8851 C   0  0  0  0  0  0  0  0  0  0  0  0
   -1.3909    0.8098    0.2995 C   0  0  0  0  0  0  0  0  0  0  0  0
   -2.6591    0.3581   -0.1098 C   0  0  0  0  0  0  0  0  0  0  0  0
   -0.8791   -1.6056    0.6919 C   0  0  0  0  0  0  0  0  0  0  0  0
   -2.9848   -1.0491   -0.1022 C   0  0  0  0  0  0  0  0  0  0  0  0
   -2.1405   -2.0820    0.2869 C   0  0  0  0  0  0  0  0  0  0  0  0
  1  7  1  0
  1  9  1  0
  2  7  1  0
  3  8  1  0
  4  8  2  0
  5 10  1  0
  5 13  1  0
  5 14  1  0
  6 12  1  0
  6 15  1  0
  7 21  2  0
  8 18  1  0
  9 19  2  0
 10 11  1  0
 11 12  1  0
 13 16  1  0
 14 17  1  0
 15 18  2  0
 15 20  1  0
 18 19  1  0
 19 21  1  0
 20 22  2  0
 21 22  1  0
M  CHG  4   2  -1   3  -1   7   1   8   1
M  END
>  <PUBCHEM_COMPOUND_CID>  (1) 
47632

>  <PUBCHEM_CONFORMER_RMSD>  (1) 
0.8

>  <PUBCHEM_CONFORMER_DIVERSEORDER>  (1) 
1
32
40
45
6
15
38
5
14
39
42
24
31
37
26
12
21
18
35
9
27
8
22
28
23
10
13
46
16
4
30
34
19
25
29
7
17
2
33
47
20
11
44
3
41
43
36

>  <PUBCHEM_MMFF94_PARTIAL_CHARGES>  (1) 
22
1 -0.12
10 0.27
12 0.37
13 0.27
14 0.27
15 0.1
18 0.13
19 0.29
2 -0.63
20 -0.15
21 -0.08
22 -0.15
3 -0.52
33 0.4
4 -0.52
40 0.15
41 0.15
5 -0.81
6 -0.87
7 0.95
8 0.91
9 -0.41

>  <PUBCHEM_EFFECTIVE_ROTOR_COUNT>  (1) 
8

>  <PUBCHEM_PHARMACOPHORE_FEATURES>  (1) 
10
1 2 anion
1 3 acceptor
1 3 anion
1 4 acceptor
1 5 cation
1 6 cation
1 6 donor
1 9 acceptor
5 1 7 9 19 21 rings
6 15 18 19 20 21 22 rings

>  <PUBCHEM_HEAVY_ATOM_COUNT>  (1) 
22

>  <PUBCHEM_ATOM_DEF_STEREO_COUNT>  (1) 
0

>  <PUBCHEM_ATOM_UDEF_STEREO_COUNT>  (1) 
0

>  <PUBCHEM_BOND_DEF_STEREO_COUNT>  (1) 
0

>  <PUBCHEM_BOND_UDEF_STEREO_COUNT>  (1) 
0

>  <PUBCHEM_ISOTOPIC_ATOM_COUNT>  (1) 
0

>  <PUBCHEM_COMPONENT_COUNT>  (1) 
1

>  <PUBCHEM_CACTVS_TAUTO_COUNT>  (1) 
2

>  <PUBCHEM_CONFORMER_ID>  (1) 
0000BA1000000001

>  <PUBCHEM_MMFF94_ENERGY>  (1) 
64.4141

>  <PUBCHEM_FEATURE_SELFOVERLAP>  (1) 
50.955

>  <PUBCHEM_SHAPE_FINGERPRINT>  (1) 
10498660 4 18408035213008644944
10730089 88 18200038343635438534
12035759 4 18186240606409443272
12363563 72 16773804645733541850
12633257 1 15267334137495574700
14251751 18 18131068191550263942
14528608 73 17313382352717156006
14790565 3 18195248815567776113
14955137 171 18337689576288056641
15475509 8 18272092665367209905
16752209 62 18336822005151425248
17959699 21 17603583049394843068
19862831 5 18113059333268492618
21315764 119 18198063577496123916
23366157 5 17681543737059275219
23557571 272 18342446033477591288
23559900 14 18413386527933115122
3004659 81 18334010588843461906
474 4 16805322236479474288

>  <PUBCHEM_SHAPE_MULTIPOLES>  (1) 
404.37
10.97
2.61
1.51
2.69
0.94
0.04
-4.1
-5.46
-0.69
-0.42
1.9
0.01
-0.45

>  <PUBCHEM_SHAPE_SELFOVERLAP>  (1) 
834.658

>  <PUBCHEM_SHAPE_VOLUME>  (1) 
233

>  <PUBCHEM_COORDINATE_TYPE>  (1) 
2
5
10

$$$$
