47638
     RDKit          3D

 11 11  0  0  0  0  0  0  0  0999 V2000
   -0.2329   -3.0196    0.0006 Br  0  0  0  0  0  0  0  0  0  0  0  0
    2.7871    1.9558    0.0000 Br  0  0  0  0  0  0  0  0  0  0  0  0
    2.7689   -1.4491   -0.0006 Br  0  0  0  0  0  0  0  0  0  0  0  0
   -2.4985   -1.0000   -0.0003 O   0  0  0  0  0  0  0  0  0  0  0  0
   -1.2408    1.0154    0.0000 C   0  0  0  0  0  0  0  0  0  0  0  0
   -1.2825   -0.3789   -0.0002 C   0  0  0  0  0  0  0  0  0  0  0  0
   -0.0126    1.6765    0.0002 C   0  0  0  0  0  0  0  0  0  0  0  0
   -0.0959   -1.1122   -0.0001 C   0  0  0  0  0  0  0  0  0  0  0  0
    1.1740    0.9433    0.0003 C   0  0  0  0  0  0  0  0  0  0  0  0
   -2.4992    1.8200   -0.0001 C   0  0  0  0  0  0  0  0  0  0  0  0
    1.1325   -0.4511    0.0002 C   0  0  0  0  0  0  0  0  0  0  0  0
  1  8  1  0
  2  9  1  0
  3 11  1  0
  4  6  1  0
  5  6  2  0
  5  7  1  0
  5 10  1  0
  6  8  1  0
  7  9  2  0
  8 11  2  0
  9 11  1  0
M  END
>  <PUBCHEM_COMPOUND_CID>  (1) 
47638

>  <PUBCHEM_CONFORMER_RMSD>  (1) 
0.4

>  <PUBCHEM_CONFORMER_DIVERSEORDER>  (1) 
1

>  <PUBCHEM_MMFF94_PARTIAL_CHARGES>  (1) 
13
1 -0.11
10 0.14
11 0.11
12 0.15
16 0.45
2 -0.11
3 -0.11
4 -0.53
5 -0.14
6 0.08
7 -0.15
8 0.11
9 0.11

>  <PUBCHEM_EFFECTIVE_ROTOR_COUNT>  (1) 
0

>  <PUBCHEM_PHARMACOPHORE_FEATURES>  (1) 
5
1 1 hydrophobe
1 2 hydrophobe
1 3 hydrophobe
1 4 donor
6 5 6 7 8 9 11 rings

>  <PUBCHEM_HEAVY_ATOM_COUNT>  (1) 
11

>  <PUBCHEM_ATOM_DEF_STEREO_COUNT>  (1) 
0

>  <PUBCHEM_ATOM_UDEF_STEREO_COUNT>  (1) 
0

>  <PUBCHEM_BOND_DEF_STEREO_COUNT>  (1) 
0

>  <PUBCHEM_BOND_UDEF_STEREO_COUNT>  (1) 
0

>  <PUBCHEM_ISOTOPIC_ATOM_COUNT>  (1) 
0

>  <PUBCHEM_COMPONENT_COUNT>  (1) 
1

>  <PUBCHEM_CACTVS_TAUTO_COUNT>  (1) 
3

>  <PUBCHEM_CONFORMER_ID>  (1) 
0000BA1600000001

>  <PUBCHEM_MMFF94_ENERGY>  (1) 
28.0192

>  <PUBCHEM_FEATURE_SELFOVERLAP>  (1) 
25.373

>  <PUBCHEM_SHAPE_FINGERPRINT>  (1) 
10967382 1 18194401319059819590
12423570 1 12607399987998442642
13140716 1 18339081488550846313
13380535 76 18267579285682445014
16945 1 18194402431472368388
193761 8 18338797917867361158
20588541 1 18123755523669064299
20645476 183 17897472552224417158
20871998 184 17695353968101592484
21040471 1 18410855503204760096
21501502 16 18411700988975892492
2334 1 18410574006673974756
23463225 33 17830452782999689706
23526114 1 18410012113488301676
23552423 10 18335139778272935332
23559900 14 18198912410250144430
241688 4 18337108973306859400
2748010 2 18409168800701387844
5084963 1 18130785642135130626
5255222 1 18125156284398096304
528886 8 18194959639096680650
66348 1 18409731767977174470

>  <PUBCHEM_SHAPE_MULTIPOLES>  (1) 
238.33
3.76
3.21
0.65
0.79
1.45
0
-1.27
0
0.29
0
0.08
0.02
0

>  <PUBCHEM_SHAPE_SELFOVERLAP>  (1) 
454.177

>  <PUBCHEM_SHAPE_VOLUME>  (1) 
154.2

>  <PUBCHEM_COORDINATE_TYPE>  (1) 
2
5
10

$$$$
