47648
     RDKit          3D

 24 26  0  0  1  0  0  0  0  0999 V2000
    4.7929    1.3355   -1.2803 O   0  0  0  0  0  0  0  0  0  0  0  0
    5.3014   -1.2929   -0.5392 O   0  0  0  0  0  0  0  0  0  0  0  0
   -6.5008   -1.2289   -1.0916 O   0  0  0  0  0  0  0  0  0  0  0  0
   -6.5211    0.9565   -1.2987 O   0  0  0  0  0  0  0  0  0  0  0  0
   -0.7175    0.1361    1.1122 N   0  0  0  0  0  0  0  0  0  0  0  0
   -5.9466   -0.1096   -0.9704 N   0  0  0  0  0  0  0  0  0  0  0  0
    0.2666    1.1170    0.6135 C   0  0  0  0  0  0  0  0  0  0  0  0
   -0.2176   -0.8469    2.0741 C   0  0  0  0  0  0  0  0  0  0  0  0
    1.6117    0.4541    0.3267 C   0  0  0  0  0  0  0  0  0  0  0  0
    0.8246   -1.7183    1.3843 C   0  0  0  0  0  0  0  0  0  0  0  0
    1.8780   -0.8777    0.7060 C   0  0  0  0  0  0  0  0  0  0  0  0
    0.4122    2.2609    1.6238 C   0  0  0  0  0  0  0  0  0  0  0  0
   -2.0091    0.0754    0.5980 C   0  0  0  0  0  0  0  0  0  0  0  0
    2.6092    1.1817   -0.3442 C   0  0  0  0  0  0  0  0  0  0  0  0
    3.1206   -1.4529    0.4009 C   0  0  0  0  0  0  0  0  0  0  0  0
    3.8454    0.6028   -0.6311 C   0  0  0  0  0  0  0  0  0  0  0  0
    4.1007   -0.7136   -0.2590 C   0  0  0  0  0  0  0  0  0  0  0  0
   -2.6757   -1.1589    0.4425 C   0  0  0  0  0  0  0  0  0  0  0  0
   -2.6977    1.2461    0.2137 C   0  0  0  0  0  0  0  0  0  0  0  0
   -3.9702   -1.2197   -0.0733 C   0  0  0  0  0  0  0  0  0  0  0  0
   -3.9923    1.1854   -0.3020 C   0  0  0  0  0  0  0  0  0  0  0  0
   -4.6287   -0.0476   -0.4454 C   0  0  0  0  0  0  0  0  0  0  0  0
    5.6965    2.0874   -0.4727 C   0  0  0  0  0  0  0  0  0  0  0  0
    5.4177   -1.9720   -1.7880 C   0  0  0  0  0  0  0  0  0  0  0  0
  1 16  1  0
  1 23  1  0
  2 17  1  0
  2 24  1  0
  3  6  1  0
  4  6  2  0
  5  7  1  0
  5  8  1  0
  5 13  1  0
  6 22  1  0
  7  9  1  0
  7 12  1  0
  8 10  1  0
  9 11  2  0
  9 14  1  0
 10 11  1  0
 11 15  1  0
 13 18  2  0
 13 19  1  0
 14 16  2  0
 15 17  2  0
 16 17  1  0
 18 20  1  0
 19 21  2  0
 20 22  2  0
 21 22  1  0
M  CHG  2   3  -1   6   1
M  END
>  <PUBCHEM_COMPOUND_CID>  (1) 
47648

>  <PUBCHEM_CONFORMER_RMSD>  (1) 
0.8

>  <PUBCHEM_CONFORMER_DIVERSEORDER>  (1) 
4
5
7
6
8
2
1
3

>  <PUBCHEM_MMFF94_PARTIAL_CHARGES>  (1) 
29
1 -0.36
10 0.14
11 -0.14
13 0.1
14 -0.15
15 -0.15
16 0.08
17 0.08
18 -0.15
19 -0.15
2 -0.36
20 -0.15
21 -0.15
22 0.13
23 0.28
24 0.28
3 -0.52
33 0.15
34 0.15
35 0.15
36 0.15
37 0.15
38 0.15
4 -0.52
5 -0.84
6 0.91
7 0.51
8 0.37
9 -0.14

>  <PUBCHEM_EFFECTIVE_ROTOR_COUNT>  (1) 
4.8

>  <PUBCHEM_PHARMACOPHORE_FEATURES>  (1) 
9
1 1 acceptor
1 2 acceptor
1 3 acceptor
1 3 anion
1 4 acceptor
1 5 cation
6 13 18 19 20 21 22 rings
6 5 7 8 9 10 11 rings
6 9 11 14 15 16 17 rings

>  <PUBCHEM_HEAVY_ATOM_COUNT>  (1) 
24

>  <PUBCHEM_ATOM_DEF_STEREO_COUNT>  (1) 
0

>  <PUBCHEM_ATOM_UDEF_STEREO_COUNT>  (1) 
1

>  <PUBCHEM_BOND_DEF_STEREO_COUNT>  (1) 
0

>  <PUBCHEM_BOND_UDEF_STEREO_COUNT>  (1) 
0

>  <PUBCHEM_ISOTOPIC_ATOM_COUNT>  (1) 
0

>  <PUBCHEM_COMPONENT_COUNT>  (1) 
1

>  <PUBCHEM_CACTVS_TAUTO_COUNT>  (1) 
1

>  <PUBCHEM_CONFORMER_ID>  (1) 
0000BA2000000004

>  <PUBCHEM_MMFF94_ENERGY>  (1) 
105.3046

>  <PUBCHEM_FEATURE_SELFOVERLAP>  (1) 
45.78

>  <PUBCHEM_SHAPE_FINGERPRINT>  (1) 
10 15 8070024484957329575
10693767 8 18266176120210811550
11961588 58 17895190055883367234
12236239 1 18343867701416147549
12403259 415 17458643232135650746
12670546 177 18335704918506833286
12730499 353 17458631090458472451
12892183 10 10231764365873036018
12954195 1 18199746956460070065
13685833 64 16200429182839137719
14528608 73 18040432187796416871
15183329 4 18261393312683694191
15188451 53 14476664326941089157
15475509 35 15625657199040059214
15475509 84 10809884316110468446
1813 80 15339121238619278568
18222031 100 16487258785208351016
18608769 82 17896043303568291275
193927 3 16200436887809805243
19784866 240 17489869332663818611
19862831 5 18335989692181866938
200 152 18272094864137030682
20612939 158 18113335280253067354
20645477 70 18341339916337689766
20715895 44 17749108945861167404
21033648 29 16298396776853962584
21521239 73 18410573985368196830
21637258 2 16558746793520652615
21756936 100 12757731866900436474
221357 26 18410852153452081141
22393880 68 18333168362424934642
23402655 69 18333450953976759971
23522609 53 17773062876024445601
23559900 14 18270390711472276161
2838139 119 15719382975493387997
2871803 45 18334011683405838848
29717793 49 18272091565391196310
3004659 81 18410292476300597654
312425 54 10735877274786209493
3472631 163 14057013727397912527
34797466 226 18412549829053088949
465052 167 17632577193047942831
474 4 17022905670325893981
59682541 52 18411134693142942319
7970288 3 17632856417209083327
960060 61 18341893004223182036

>  <PUBCHEM_SHAPE_MULTIPOLES>  (1) 
460.47
14.57
2.1
1.48
9.14
0.28
-0.24
-0.97
10.32
-2.02
-0.06
-0.16
-0.23
0.24

>  <PUBCHEM_SHAPE_SELFOVERLAP>  (1) 
988.981

>  <PUBCHEM_SHAPE_VOLUME>  (1) 
255.7

>  <PUBCHEM_COORDINATE_TYPE>  (1) 
2
5
10

$$$$
