47659
     RDKit          3D

 24 23  0  0  1  0  0  0  0  0999 V2000
    3.0233   -3.3742   -0.1783 S   0  0  0  0  0  0  0  0  0  0  0  0
    2.8788    0.1921   -0.3991 O   0  0  0  0  0  0  0  0  0  0  0  0
    2.5001   -0.7812    1.6563 O   0  0  0  0  0  0  0  0  0  0  0  0
    2.9327   -3.6311    1.2563 O   0  0  0  0  0  0  0  0  0  0  0  0
    2.4069   -4.3869   -1.0311 O   0  0  0  0  0  0  0  0  0  0  0  0
    4.3160   -2.8759   -0.6402 O   0  0  0  0  0  0  0  0  0  0  0  0
    4.3924    3.5635   -0.1159 N   0  0  0  0  0  0  0  0  0  0  0  0
   -1.8969   -1.5359    0.0230 C   0  0  0  0  0  0  0  0  0  0  0  0
   -0.4540   -1.1449   -0.3048 C   0  0  0  0  0  0  0  0  0  0  0  0
   -2.8599   -0.3761   -0.2366 C   0  0  0  0  0  0  0  0  0  0  0  0
    0.5122   -2.2979   -0.0160 C   0  0  0  0  0  0  0  0  0  0  0  0
    3.8188    2.3737   -0.7940 C   0  0  0  0  0  0  0  0  0  0  0  0
   -4.2984   -0.7557    0.1231 C   0  0  0  0  0  0  0  0  0  0  0  0
    1.9588   -1.9726   -0.3969 C   0  0  0  0  0  0  0  0  0  0  0  0
   -5.2638    0.3950   -0.1691 C   0  0  0  0  0  0  0  0  0  0  0  0
    3.3993    1.3570    0.2493 C   0  0  0  0  0  0  0  0  0  0  0  0
   -6.7161    0.0807    0.2014 C   0  0  0  0  0  0  0  0  0  0  0  0
    4.8580    4.6041   -1.1433 C   0  0  0  0  0  0  0  0  0  0  0  0
    5.5997    3.1696    0.7458 C   0  0  0  0  0  0  0  0  0  0  0  0
    3.3505    4.2257    0.7958 C   0  0  0  0  0  0  0  0  0  0  0  0
    2.4617   -0.8087    0.4333 C   0  0  0  0  0  0  0  0  0  0  0  0
   -7.6926    1.2026   -0.1585 C   0  0  0  0  0  0  0  0  0  0  0  0
   -9.1231    0.8414    0.2442 C   0  0  0  0  0  0  0  0  0  0  0  0
  -10.1045    1.9356   -0.1446 C   0  0  0  0  0  0  0  0  0  0  0  0
  1  4  1  0
  1  5  2  0
  1  6  2  0
  1 14  1  0
  2 16  1  0
  2 21  1  0
  3 21  2  0
  7 12  1  0
  7 18  1  0
  7 19  1  0
  7 20  1  0
  8  9  1  0
  8 10  1  0
  9 11  1  0
 10 13  1  0
 11 14  1  0
 12 16  1  0
 13 15  1  0
 14 21  1  0
 15 17  1  0
 17 22  1  0
 22 23  1  0
 23 24  1  0
M  CHG  2   4  -1   7   1
M  END
>  <PUBCHEM_COMPOUND_CID>  (1) 
47659

>  <PUBCHEM_CONFORMER_RMSD>  (1) 
1.4

>  <PUBCHEM_CONFORMER_DIVERSEORDER>  (1) 
1
31
30
38
35
33
17
12
44
36
21
3
46
22
42
32
27
4
41
39
8
10
29
15
45
2
40
34
16
11
37
43
24
6
28
18
19
23
7
26
14
20
9
13
25
5

>  <PUBCHEM_MMFF94_PARTIAL_CHARGES>  (1) 
14
1 1.34
12 0.5
14 0.17
16 0.28
18 0.5
19 0.5
2 -0.43
20 0.5
21 0.66
3 -0.57
4 -0.82
5 -0.82
6 -0.82
7 -1.01

>  <PUBCHEM_EFFECTIVE_ROTOR_COUNT>  (1) 
15

>  <PUBCHEM_PHARMACOPHORE_FEATURES>  (1) 
7
1 24 hydrophobe
1 3 acceptor
1 4 acceptor
1 5 acceptor
1 6 acceptor
1 7 cation
4 1 4 5 6 anion

>  <PUBCHEM_HEAVY_ATOM_COUNT>  (1) 
24

>  <PUBCHEM_ATOM_DEF_STEREO_COUNT>  (1) 
0

>  <PUBCHEM_ATOM_UDEF_STEREO_COUNT>  (1) 
1

>  <PUBCHEM_BOND_DEF_STEREO_COUNT>  (1) 
0

>  <PUBCHEM_BOND_UDEF_STEREO_COUNT>  (1) 
0

>  <PUBCHEM_ISOTOPIC_ATOM_COUNT>  (1) 
0

>  <PUBCHEM_COMPONENT_COUNT>  (1) 
1

>  <PUBCHEM_CACTVS_TAUTO_COUNT>  (1) 
1

>  <PUBCHEM_CONFORMER_ID>  (1) 
0000BA2B00000001

>  <PUBCHEM_MMFF94_ENERGY>  (1) 
37.2981

>  <PUBCHEM_FEATURE_SELFOVERLAP>  (1) 
35.592

>  <PUBCHEM_SHAPE_FINGERPRINT>  (1) 
10411042 1 17978792307845814118
10937287 8 18123469642615057718
11135609 127 18342450465498705297
12107183 9 18119795062572210112
13878862 14 18337654348818530269
13944108 23 18411138043275968201
13955234 65 18408042892500568618
14142895 15 18412261779837150357
14251764 75 18264488575376533868
15419008 91 17822002092223145405
15439362 3 18267590277231723604
155225 6 18191028004823720021
15840311 113 18408606929945268701
19427546 62 18410575110634226247
21315764 268 18262797346905741165
23081809 10 17846772989458417999
23523787 8 15912777210044261172
23523788 1 12614124614743329984
270888 7 18266740358041790389
3411729 13 18335137626251714050
397830 11 18260558848927798083
4073 2 18261675974137515427
444735 82 18410575064307347413
44555599 121 18130232537360010761

>  <PUBCHEM_SHAPE_MULTIPOLES>  (1) 
463.43
23.19
6.34
0.96
80.32
1.67
-0.12
24.5
0.08
-16.78
0.72
-1.13
0.06
-0.06

>  <PUBCHEM_SHAPE_SELFOVERLAP>  (1) 
863.083

>  <PUBCHEM_SHAPE_VOLUME>  (1) 
292.3

>  <PUBCHEM_COORDINATE_TYPE>  (1) 
2
5
10

$$$$
