47668
     RDKit          3D

 22 23  0  0  0  0  0  0  0  0999 V2000
    4.6911    2.7761   -0.0523 O   0  0  0  0  0  0  0  0  0  0  0  0
   -6.0746    1.1915    1.1157 O   0  0  0  0  0  0  0  0  0  0  0  0
   -5.4592    2.5692   -0.5841 O   0  0  0  0  0  0  0  0  0  0  0  0
    1.1351   -2.4582    0.0032 N   0  0  0  0  0  0  0  0  0  0  0  0
    0.0329   -1.6509    0.1041 N   0  0  0  0  0  0  0  0  0  0  0  0
   -0.9398   -2.0158   -0.5916 N   0  0  0  0  0  0  0  0  0  0  0  0
    2.2005   -2.1867    0.9469 C   0  0  0  0  0  0  0  0  0  0  0  0
    2.8635   -0.8661    0.6811 C   0  0  0  0  0  0  0  0  0  0  0  0
    2.3775    0.2824    1.2941 C   0  0  0  0  0  0  0  0  0  0  0  0
    3.9563   -0.8060   -0.1755 C   0  0  0  0  0  0  0  0  0  0  0  0
    2.9933    1.5093    1.0469 C   0  0  0  0  0  0  0  0  0  0  0  0
    4.5723    0.4209   -0.4226 C   0  0  0  0  0  0  0  0  0  0  0  0
    4.0908    1.5787    0.1887 C   0  0  0  0  0  0  0  0  0  0  0  0
    1.4492   -3.2018   -1.2045 C   0  0  0  0  0  0  0  0  0  0  0  0
   -2.0083   -1.1297   -0.4206 C   0  0  0  0  0  0  0  0  0  0  0  0
   -4.1401    0.6375   -0.0813 C   0  0  0  0  0  0  0  0  0  0  0  0
   -2.1337   -0.0193   -1.2557 C   0  0  0  0  0  0  0  0  0  0  0  0
   -2.9490   -1.3565    0.5841 C   0  0  0  0  0  0  0  0  0  0  0  0
   -3.1995    0.8643   -1.0859 C   0  0  0  0  0  0  0  0  0  0  0  0
   -4.0149   -0.4728    0.7537 C   0  0  0  0  0  0  0  0  0  0  0  0
    5.8082    2.7755   -0.9398 C   0  0  0  0  0  0  0  0  0  0  0  0
   -5.2516    1.5585    0.0954 C   0  0  0  0  0  0  0  0  0  0  0  0
  1 13  1  0
  1 21  1  0
  2 22  1  0
  3 22  2  0
  4  5  1  0
  4  7  1  0
  4 14  1  0
  5  6  2  0
  6 15  1  0
  7  8  1  0
  8  9  2  0
  8 10  1  0
  9 11  1  0
 10 12  2  0
 11 13  2  0
 12 13  1  0
 15 17  2  0
 15 18  1  0
 16 19  2  0
 16 20  1  0
 16 22  1  0
 17 19  1  0
 18 20  2  0
M  END
>  <PUBCHEM_COMPOUND_CID>  (1) 
47668

>  <PUBCHEM_CONFORMER_RMSD>  (1) 
0.8

>  <PUBCHEM_CONFORMER_DIVERSEORDER>  (1) 
1
31
12
3
35
18
37
17
13
14
7
21
6
30
28
2
10
27
33
5
40
32
4
9
34
36
11
26
39
20
15
25
24
23
38
8
29
16
19
22

>  <PUBCHEM_MMFF94_PARTIAL_CHARGES>  (1) 
31
1 -0.36
10 -0.15
11 -0.15
12 -0.15
13 0.08
14 0.3
15 0.18
16 0.09
17 -0.15
18 -0.15
19 -0.15
2 -0.65
20 -0.15
21 0.28
22 0.63
25 0.15
26 0.15
27 0.15
28 0.15
3 -0.57
32 0.15
33 0.15
34 0.15
35 0.15
39 0.5
4 -0.54
5 -0.06
6 -0.18
7 0.44
8 -0.14
9 -0.15

>  <PUBCHEM_EFFECTIVE_ROTOR_COUNT>  (1) 
6

>  <PUBCHEM_PHARMACOPHORE_FEATURES>  (1) 
6
1 1 acceptor
1 2 acceptor
1 3 acceptor
3 2 3 22 anion
6 15 16 17 18 19 20 rings
6 8 9 10 11 12 13 rings

>  <PUBCHEM_HEAVY_ATOM_COUNT>  (1) 
22

>  <PUBCHEM_ATOM_DEF_STEREO_COUNT>  (1) 
0

>  <PUBCHEM_ATOM_UDEF_STEREO_COUNT>  (1) 
0

>  <PUBCHEM_BOND_DEF_STEREO_COUNT>  (1) 
0

>  <PUBCHEM_BOND_UDEF_STEREO_COUNT>  (1) 
0

>  <PUBCHEM_ISOTOPIC_ATOM_COUNT>  (1) 
0

>  <PUBCHEM_COMPONENT_COUNT>  (1) 
1

>  <PUBCHEM_CACTVS_TAUTO_COUNT>  (1) 
1

>  <PUBCHEM_CONFORMER_ID>  (1) 
0000BA3400000001

>  <PUBCHEM_MMFF94_ENERGY>  (1) 
73.6441

>  <PUBCHEM_FEATURE_SELFOVERLAP>  (1) 
30.504

>  <PUBCHEM_SHAPE_FINGERPRINT>  (1) 
10447042 23 8718820981606805226
10498660 4 18272367607091852776
10730089 43 18261390010117646341
11595378 159 15936967431858424757
11720765 8 17916877816443193932
12166972 35 11887959873522474592
12363563 72 9150902723278944738
12633257 1 18188472589133437363
12788726 201 17703515397938739745
13828863 39 18261957452348546021
13878862 14 18046882932470127965
13944108 23 18124599682581028764
14114211 80 18272099330439100013
1420 369 7997972396492507472
14251740 57 12468627297326717056
14251764 38 18051126995940913761
14251764 75 18339647835939852184
14341114 328 16443069443047418854
14848178 5 9511467705799993372
14848178 96 18340762663531177945
15142526 21 18186800313562394962
151778 21 18411694374879211518
15342168 16 18342172242023292919
16760501 71 18408890625008744241
17834072 32 18410571807687603582
20567600 70 9439402419882021700
20626108 58 10663826265081130942
20843269 155 10303275498996895108
21365058 113 17696489389804036982
21388113 180 18188758441061962389
21864079 5 18339352050284695766
23559900 14 17916016850893384911
23572383 38 8934458288620576408
245318 6 17824275996904597092
2637199 183 18411139169142325442
270888 7 18410292553515186892
312425 83 14404892635284175161
397830 11 18337970991672977161
44062 13 10591778579506160571
474 4 18271519793738888371
5104073 3 18040149621592337978
5252454 2 18338786914219106180
56616090 278 18262798454554174858
57724786 102 18198630934618876977
633830 44 18411693296958789966
636775 72 17689998256324172800
76465 3 9367352534909378858
7808743 9 18191865832867674944
7970288 3 9439138541202297420

>  <PUBCHEM_SHAPE_MULTIPOLES>  (1) 
420.2
13.82
3.38
1.18
6.01
0.3
-0.01
-13.67
0.07
-2.55
-0.75
-0.03
0.05
-0.31

>  <PUBCHEM_SHAPE_SELFOVERLAP>  (1) 
889.519

>  <PUBCHEM_SHAPE_VOLUME>  (1) 
236.2

>  <PUBCHEM_COORDINATE_TYPE>  (1) 
2
5
10

$$$$
