47663
     RDKit          3D

 13 14  0  0  0  0  0  0  0  0999 V2000
    2.8980   -0.4585    1.1527 O   0  0  0  0  0  0  0  0  0  0  0  0
    0.8355   -0.1105    0.2373 N   0  0  0  0  0  0  0  0  0  0  0  0
    2.8405    0.4390   -0.9453 N   0  0  0  0  0  0  0  0  0  0  0  0
   -0.1070    0.2875   -0.8097 C   0  0  0  0  0  0  0  0  0  0  0  0
   -1.5279    0.1356   -0.3824 C   0  0  0  0  0  0  0  0  0  0  0  0
    4.2452   -0.4865    0.7092 C   0  0  0  0  0  0  0  0  0  0  0  0
    4.2442    0.3760   -0.5283 C   0  0  0  0  0  0  0  0  0  0  0  0
    2.1847   -0.0114    0.0791 C   0  0  0  0  0  0  0  0  0  0  0  0
   -2.1994   -1.0663   -0.6064 C   0  0  0  0  0  0  0  0  0  0  0  0
   -2.1854    1.1961    0.2413 C   0  0  0  0  0  0  0  0  0  0  0  0
   -3.5283   -1.2080   -0.2064 C   0  0  0  0  0  0  0  0  0  0  0  0
   -3.5143    1.0545    0.6411 C   0  0  0  0  0  0  0  0  0  0  0  0
   -4.1858   -0.1477    0.4176 C   0  0  0  0  0  0  0  0  0  0  0  0
  1  6  1  0
  1  8  1  0
  2  4  1  0
  2  8  1  0
  3  7  1  0
  3  8  2  0
  4  5  1  0
  5  9  2  0
  5 10  1  0
  6  7  1  0
  9 11  1  0
 10 12  2  0
 11 13  2  0
 12 13  1  0
M  END
>  <PUBCHEM_COMPOUND_CID>  (1) 
47663

>  <PUBCHEM_CONFORMER_RMSD>  (1) 
0.6

>  <PUBCHEM_CONFORMER_DIVERSEORDER>  (1) 
1
33
34
18
27
6
32
17
16
19
22
15
20
13
21
12
25
14
7
10
9
28
29
11
8
24
23
31
5
30
2
3
26
4

>  <PUBCHEM_MMFF94_PARTIAL_CHARGES>  (1) 
19
1 -0.43
10 -0.15
11 -0.15
12 -0.15
13 -0.15
2 -0.82
20 0.4
21 0.15
22 0.15
23 0.15
24 0.15
25 0.15
3 -0.7
4 0.51
5 -0.14
6 0.28
7 0.25
8 0.65
9 -0.15

>  <PUBCHEM_EFFECTIVE_ROTOR_COUNT>  (1) 
3.6

>  <PUBCHEM_PHARMACOPHORE_FEATURES>  (1) 
4
1 2 donor
3 2 3 8 cation
5 1 3 6 7 8 rings
6 5 9 10 11 12 13 rings

>  <PUBCHEM_HEAVY_ATOM_COUNT>  (1) 
13

>  <PUBCHEM_ATOM_DEF_STEREO_COUNT>  (1) 
0

>  <PUBCHEM_ATOM_UDEF_STEREO_COUNT>  (1) 
0

>  <PUBCHEM_BOND_DEF_STEREO_COUNT>  (1) 
0

>  <PUBCHEM_BOND_UDEF_STEREO_COUNT>  (1) 
0

>  <PUBCHEM_ISOTOPIC_ATOM_COUNT>  (1) 
0

>  <PUBCHEM_COMPONENT_COUNT>  (1) 
1

>  <PUBCHEM_CACTVS_TAUTO_COUNT>  (1) 
2

>  <PUBCHEM_CONFORMER_ID>  (1) 
0000BA2F00000001

>  <PUBCHEM_MMFF94_ENERGY>  (1) 
23.8026

>  <PUBCHEM_FEATURE_SELFOVERLAP>  (1) 
20.297

>  <PUBCHEM_SHAPE_FINGERPRINT>  (1) 
10680689 15 16917348147269945701
11615757 297 17603587438993837740
12251169 10 18343021099148508693
12932764 1 18187355536964504852
13897977 58 18341900718063930685
14144814 61 18407758131604149284
15219456 202 17274553031131483719
15375462 189 18114178627178134536
15653759 3 17703788132534864467
190213 19 18335137587654991622
19050596 39 18334012791639205136
19422 9 18333450941192182146
1986462 14 17917713500149520551
200 152 17095518509140522527
20279233 1 16702303451116884254
20281475 54 18333725831994804946
20645464 45 17060625503591272173
20645477 70 16298651816254596026
20828058 21 18131353011825943500
22485316 2 16587740945273102443
2297311 6 17917163757067845996
23402539 116 18408315588278561999
23559900 14 17845947221101017438
42 15 18343300332284308962
474 4 17679589106243653740
573450 72 18410567362438604995
77779 3 18343304768842867132

>  <PUBCHEM_SHAPE_MULTIPOLES>  (1) 
251.7
9.39
1.09
0.95
4.63
0.01
-0.03
0.31
-1.39
-1.18
-0.01
0.57
0.01
-0.52

>  <PUBCHEM_SHAPE_SELFOVERLAP>  (1) 
527.832

>  <PUBCHEM_SHAPE_VOLUME>  (1) 
142.9

>  <PUBCHEM_COORDINATE_TYPE>  (1) 
2
5
10

$$$$
