47675
     RDKit          3D

 16 17  0  0  0  0  0  0  0  0999 V2000
   -1.4450    0.2200    0.2708 N   0  0  0  0  0  0  0  0  0  0  0  0
    4.2155    0.2598   -0.4328 N   0  0  0  0  0  0  0  0  0  0  0  0
   -0.5550   -0.8200    0.4153 C   0  0  0  0  0  0  0  0  0  0  0  0
    0.7871   -0.6377    1.0138 C   0  0  0  0  0  0  0  0  0  0  0  0
    1.8580   -0.2824   -0.0374 C   0  0  0  0  0  0  0  0  0  0  0  0
   -1.1405   -1.9655   -0.0795 C   0  0  0  0  0  0  0  0  0  0  0  0
    3.2297   -0.0532    0.5952 C   0  0  0  0  0  0  0  0  0  0  0  0
   -2.6045   -0.2715   -0.3208 C   0  0  0  0  0  0  0  0  0  0  0  0
   -2.4332   -1.6210   -0.5440 C   0  0  0  0  0  0  0  0  0  0  0  0
   -1.2825    1.5580    0.6311 C   0  0  0  0  0  0  0  0  0  0  0  0
   -0.5362   -3.3123   -0.1219 C   0  0  0  0  0  0  0  0  0  0  0  0
   -3.6624    0.6526   -0.5613 C   0  0  0  0  0  0  0  0  0  0  0  0
   -2.2824    2.4248    0.4025 C   0  0  0  0  0  0  0  0  0  0  0  0
   -3.5080    1.9449   -0.2149 C   0  0  0  0  0  0  0  0  0  0  0  0
    5.5394    0.4481    0.1631 C   0  0  0  0  0  0  0  0  0  0  0  0
    3.8202    1.4553   -1.1792 C   0  0  0  0  0  0  0  0  0  0  0  0
  1  3  1  0
  1  8  1  0
  1 10  1  0
  2  7  1  0
  2 15  1  0
  2 16  1  0
  3  4  1  0
  3  6  2  0
  4  5  1  0
  5  7  1  0
  6  9  1  0
  6 11  1  0
  8  9  2  0
  8 12  1  0
 10 13  2  0
 12 14  2  0
 13 14  1  0
M  END
>  <PUBCHEM_COMPOUND_CID>  (1) 
47675

>  <PUBCHEM_CONFORMER_RMSD>  (1) 
0.6

>  <PUBCHEM_CONFORMER_DIVERSEORDER>  (1) 
1
16
17
7
5
15
18
13
8
20
11
12
14
6
2
19
10
4
9
3

>  <PUBCHEM_MMFF94_PARTIAL_CHARGES>  (1) 
20
1 0.33
10 -0.18
11 0.18
12 -0.11
13 -0.15
14 -0.15
15 0.27
16 0.27
2 -0.81
23 0.15
24 0.15
28 0.15
29 0.15
3 -0.33
30 0.15
4 0.18
6 -0.18
7 0.27
8 -0.2
9 -0.15

>  <PUBCHEM_EFFECTIVE_ROTOR_COUNT>  (1) 
4

>  <PUBCHEM_PHARMACOPHORE_FEATURES>  (1) 
4
1 1 cation
1 2 cation
5 1 3 6 8 9 rings
6 1 8 10 12 13 14 rings

>  <PUBCHEM_HEAVY_ATOM_COUNT>  (1) 
16

>  <PUBCHEM_ATOM_DEF_STEREO_COUNT>  (1) 
0

>  <PUBCHEM_ATOM_UDEF_STEREO_COUNT>  (1) 
0

>  <PUBCHEM_BOND_DEF_STEREO_COUNT>  (1) 
0

>  <PUBCHEM_BOND_UDEF_STEREO_COUNT>  (1) 
0

>  <PUBCHEM_ISOTOPIC_ATOM_COUNT>  (1) 
0

>  <PUBCHEM_COMPONENT_COUNT>  (1) 
1

>  <PUBCHEM_CACTVS_TAUTO_COUNT>  (1) 
1

>  <PUBCHEM_CONFORMER_ID>  (1) 
0000BA3B00000001

>  <PUBCHEM_MMFF94_ENERGY>  (1) 
29.3751

>  <PUBCHEM_FEATURE_SELFOVERLAP>  (1) 
20.398

>  <PUBCHEM_SHAPE_FINGERPRINT>  (1) 
11640471 11 17968099733036669412
12173636 292 18411974754380623709
12500047 106 18341608235608123826
12788726 201 18116142466525724850
14123260 362 18261120677119132236
14790565 3 18342185414846960089
15669948 3 18339352054495410042
15775835 57 18186519869425197036
16945 1 18127668488796141923
1741750 31 18410857642209074626
20300324 65 18343580767535997212
20510252 161 18342178881821173523
20645476 183 18334007298291949267
20645477 56 18412830196302796424
20645477 70 16486986064134268670
20871999 31 18271518797174327695
21524375 3 18261672571478320826
23366157 5 17901949638918721627
23402539 116 18342167890799234150
23557571 272 18200880685437788862
23559900 14 18130785647389953490
2838139 119 16806704219490182805
298252 57 18409165485050036738
3071541 12 17836368142513928011
4028521 119 18412259523718848772
4175511 318 18060420235252323478
441001 317 18340766035650561912
474 4 17748828518787411312
559249 180 18410007698942741258
573450 72 18335969931554504258
7364860 26 17766833936314971195
9709674 26 18272377490276292302
9981440 41 18409164381243747099

>  <PUBCHEM_SHAPE_MULTIPOLES>  (1) 
319.31
8.47
2.77
0.9
12.57
1.28
0.03
-4.57
1.57
-2.4
0.13
0.31
-0.14
-0.69

>  <PUBCHEM_SHAPE_SELFOVERLAP>  (1) 
664.061

>  <PUBCHEM_SHAPE_VOLUME>  (1) 
183.5

>  <PUBCHEM_COORDINATE_TYPE>  (1) 
2
5
10

$$$$
