47685
     RDKit          3D

 26 26  0  0  0  0  0  0  0  0999 V2000
   -2.3660   -2.7839   -1.9813 Cl  0  0  0  0  0  0  0  0  0  0  0  0
    0.1598   -4.5927   -2.2698 Cl  0  0  0  0  0  0  0  0  0  0  0  0
   -2.9575   -2.0074    1.5718 Cl  0  0  0  0  0  0  0  0  0  0  0  0
   -0.7738   -3.3670    3.3375 Cl  0  0  0  0  0  0  0  0  0  0  0  0
    0.0722   -0.6945   -0.1213 P   0  0  0  0  0  0  0  0  0  0  0  0
   -0.5863   -3.1248   -1.1180 P   0  0  0  0  0  0  0  0  0  0  0  0
   -1.0252   -2.5483    1.5195 P   0  0  0  0  0  0  0  0  0  0  0  0
   -3.8310    1.0411   -0.2533 F   0  0  0  0  0  0  0  0  0  0  0  0
   -2.6115    2.2656   -1.5844 F   0  0  0  0  0  0  0  0  0  0  0  0
    3.0622    2.1785    0.9171 F   0  0  0  0  0  0  0  0  0  0  0  0
    3.4340    1.6924   -1.1767 F   0  0  0  0  0  0  0  0  0  0  0  0
   -4.3336    3.6955   -0.0764 F   0  0  0  0  0  0  0  0  0  0  0  0
   -2.2491    4.1149    0.3899 F   0  0  0  0  0  0  0  0  0  0  0  0
    5.6859    1.9543    0.2880 F   0  0  0  0  0  0  0  0  0  0  0  0
    5.3905   -0.0696   -0.4576 F   0  0  0  0  0  0  0  0  0  0  0  0
   -1.2402    0.1556   -0.5311 O   0  0  0  0  0  0  0  0  0  0  0  0
    1.2413    0.4222   -0.1662 O   0  0  0  0  0  0  0  0  0  0  0  0
   -0.0598   -1.2755    1.3636 N   0  0  0  0  0  0  0  0  0  0  0  0
    0.3674   -1.8366   -1.2024 N   0  0  0  0  0  0  0  0  0  0  0  0
   -0.7447   -3.6512    0.3891 N   0  0  0  0  0  0  0  0  0  0  0  0
   -1.5545    1.2834    0.2658 C   0  0  0  0  0  0  0  0  0  0  0  0
    2.5467    0.0060    0.1923 C   0  0  0  0  0  0  0  0  0  0  0  0
   -2.8091    1.9334   -0.2834 C   0  0  0  0  0  0  0  0  0  0  0  0
    3.4832    1.1933    0.0844 C   0  0  0  0  0  0  0  0  0  0  0  0
   -3.2149    3.1694    0.4830 C   0  0  0  0  0  0  0  0  0  0  0  0
    4.9140    0.8461    0.4198 C   0  0  0  0  0  0  0  0  0  0  0  0
  1  6  1  0
  2  6  1  0
  3  7  1  0
  4  7  1  0
  5 16  1  0
  5 17  1  0
  5 18  2  0
  5 19  1  0
  6 19  2  0
  6 20  1  0
  7 18  1  0
  7 20  2  0
  8 23  1  0
  9 23  1  0
 10 24  1  0
 11 24  1  0
 12 25  1  0
 13 25  1  0
 14 26  1  0
 15 26  1  0
 16 21  1  0
 17 22  1  0
 21 23  1  0
 22 24  1  0
 23 25  1  0
 24 26  1  0
M  END
>  <PUBCHEM_COMPOUND_CID>  (1) 
47685

>  <PUBCHEM_CONFORMER_RMSD>  (1) 
0.8

>  <PUBCHEM_CONFORMER_DIVERSEORDER>  (1) 
1
73
90
82
6
94
57
88
84
93
52
61
95
8
89
50
5
64
97
87
45
37
13
7
92
22
27
58
96
36
12
19
2
35
42
14
44
20
86
55
3
65
33
72
15
4
78
67
59
29
81
66
28
43
71
85
34
17
91
53
54
41
60
70
11
51
23
80
83
47
56
16
30
77
62
26
10
46
74
24
69
21
38
39
32
31
48
76
18
68
63
9
75
40
49
25
79

>  <PUBCHEM_MMFF94_PARTIAL_CHARGES>  (1) 
26
1 -0.32
10 -0.34
11 -0.34
12 -0.34
13 -0.34
14 -0.34
15 -0.34
16 -0.55
17 -0.55
18 -0.64
19 -0.64
2 -0.32
20 -0.64
21 0.28
22 0.28
23 0.68
24 0.68
25 0.68
26 0.68
3 -0.32
4 -0.32
5 1.18
6 1.27
7 1.27
8 -0.34
9 -0.34

>  <PUBCHEM_EFFECTIVE_ROTOR_COUNT>  (1) 
8

>  <PUBCHEM_PHARMACOPHORE_FEATURES>  (1) 
1
6 5 6 7 18 19 20 rings

>  <PUBCHEM_HEAVY_ATOM_COUNT>  (1) 
26

>  <PUBCHEM_ATOM_DEF_STEREO_COUNT>  (1) 
0

>  <PUBCHEM_ATOM_UDEF_STEREO_COUNT>  (1) 
0

>  <PUBCHEM_BOND_DEF_STEREO_COUNT>  (1) 
0

>  <PUBCHEM_BOND_UDEF_STEREO_COUNT>  (1) 
0

>  <PUBCHEM_ISOTOPIC_ATOM_COUNT>  (1) 
0

>  <PUBCHEM_COMPONENT_COUNT>  (1) 
1

>  <PUBCHEM_CACTVS_TAUTO_COUNT>  (1) 
1

>  <PUBCHEM_CONFORMER_ID>  (1) 
0000BA4500000001

>  <PUBCHEM_MMFF94_ENERGY>  (1) 
12.521

>  <PUBCHEM_FEATURE_SELFOVERLAP>  (1) 
5.074

>  <PUBCHEM_SHAPE_FINGERPRINT>  (1) 
107951 10 18187375281235444562
11045515 52 17619896696769084638
11833330 49 17910373310661811495
12160290 23 18118097359586648600
12293681 160 17973412659253739431
12788726 201 18192693756133010050
15775530 1 18121251738283086387
17980427 23 14635153370149444559
20101258 96 17979077416132190016
20600515 1 17534647072575588547
21524375 3 18336259046507900700
2255824 54 17694497044996003221
23419403 2 17691167800933576243
23558518 356 18260550034747772306
23598288 3 18192158302939597244
3380486 145 17691967484851249218
394222 165 18049433752017090913
474 4 18122902027894896225
81228 2 18047174521651708353
90316 7 17908154517856730494
9841814 1 17253995243410561409
9981440 41 18342452604144349715

>  <PUBCHEM_SHAPE_MULTIPOLES>  (1) 
469.22
7.92
6.2
2.15
15.58
1.44
1.02
6.69
0.21
-7.71
-1.2
-1.65
-3.43
0.72

>  <PUBCHEM_SHAPE_SELFOVERLAP>  (1) 
875.015

>  <PUBCHEM_SHAPE_VOLUME>  (1) 
296.8

>  <PUBCHEM_COORDINATE_TYPE>  (1) 
2
5
10

$$$$
