47686
     RDKit          3D

 33 33  0  0  1  0  0  0  0  0999 V2000
   -0.0659   -3.3069    0.1282 Cl  0  0  0  0  0  0  0  0  0  0  0  0
   -0.9305   -0.7764   -4.7949 Cl  0  0  0  0  0  0  0  0  0  0  0  0
    1.1162   -2.6151   -3.3216 Cl  0  0  0  0  0  0  0  0  0  0  0  0
    0.9453    0.1549   -0.8635 P   0  0  0  0  0  0  0  0  0  0  0  0
   -1.0281   -1.6349   -0.4167 P   0  0  0  0  0  0  0  0  0  0  0  0
   -0.1876   -1.1317   -2.9619 P   0  0  0  0  0  0  0  0  0  0  0  0
    2.2730    4.2177   -0.8013 F   0  0  0  0  0  0  0  0  0  0  0  0
    1.7123    3.7642    1.2573 F   0  0  0  0  0  0  0  0  0  0  0  0
    3.6063   -2.9545    0.3012 F   0  0  0  0  0  0  0  0  0  0  0  0
    4.9129   -1.2702   -0.1611 F   0  0  0  0  0  0  0  0  0  0  0  0
   -5.0848   -2.2263    0.7382 F   0  0  0  0  0  0  0  0  0  0  0  0
   -4.1927   -1.1671    2.4235 F   0  0  0  0  0  0  0  0  0  0  0  0
    0.9758    6.2340    0.4562 F   0  0  0  0  0  0  0  0  0  0  0  0
   -0.7220    4.9430    0.8920 F   0  0  0  0  0  0  0  0  0  0  0  0
    5.6688   -2.6834    2.0208 F   0  0  0  0  0  0  0  0  0  0  0  0
    3.7323   -2.3679    2.9638 F   0  0  0  0  0  0  0  0  0  0  0  0
   -6.6963   -0.3426    1.8055 F   0  0  0  0  0  0  0  0  0  0  0  0
   -6.1014    0.1105   -0.2390 F   0  0  0  0  0  0  0  0  0  0  0  0
    1.4664    1.6163   -0.4065 O   0  0  0  0  0  0  0  0  0  0  0  0
    2.2436   -0.7748   -0.6122 O   0  0  0  0  0  0  0  0  0  0  0  0
   -2.4155   -1.7693    0.4105 O   0  0  0  0  0  0  0  0  0  0  0  0
   -0.2702   -0.3080    0.0695 N   0  0  0  0  0  0  0  0  0  0  0  0
    0.5516    0.1841   -2.4145 N   0  0  0  0  0  0  0  0  0  0  0  0
   -1.3686   -1.6017   -1.9824 N   0  0  0  0  0  0  0  0  0  0  0  0
    0.5328    2.6802   -0.4570 C   0  0  0  0  0  0  0  0  0  0  0  0
    2.7807   -0.7943    0.6981 C   0  0  0  0  0  0  0  0  0  0  0  0
    1.2169    3.9507    0.0077 C   0  0  0  0  0  0  0  0  0  0  0  0
    3.9819   -1.7189    0.7183 C   0  0  0  0  0  0  0  0  0  0  0  0
   -3.3507   -0.7139    0.2795 C   0  0  0  0  0  0  0  0  0  0  0  0
   -4.5670   -1.0333    1.1261 C   0  0  0  0  0  0  0  0  0  0  0  0
    0.2936    5.1455    0.0187 C   0  0  0  0  0  0  0  0  0  0  0  0
    4.6136   -1.8327    2.0850 C   0  0  0  0  0  0  0  0  0  0  0  0
   -5.6425    0.0226    1.0326 C   0  0  0  0  0  0  0  0  0  0  0  0
  1  5  1  0
  2  6  1  0
  3  6  1  0
  4 19  1  0
  4 20  1  0
  4 22  2  0
  4 23  1  0
  5 21  1  0
  5 22  1  0
  5 24  2  0
  6 23  2  0
  6 24  1  0
  7 27  1  0
  8 27  1  0
  9 28  1  0
 10 28  1  0
 11 30  1  0
 12 30  1  0
 13 31  1  0
 14 31  1  0
 15 32  1  0
 16 32  1  0
 17 33  1  0
 18 33  1  0
 19 25  1  0
 20 26  1  0
 21 29  1  0
 25 27  1  0
 26 28  1  0
 27 31  1  0
 28 32  1  0
 29 30  1  0
 30 33  1  0
M  END
>  <PUBCHEM_COMPOUND_CID>  (1) 
47686

>  <PUBCHEM_CONFORMER_RMSD>  (1) 
1.2

>  <PUBCHEM_CONFORMER_DIVERSEORDER>  (1) 
1
35
17
66
44
67
54
16
22
34
31
65
41
64
55
46
56
51
7
43
52
3
13
61
45
15
33
50
70
14
4
71
25
10
58
26
6
59
21
68
37
5
36
53
39
42
62
48
72
29
19
32
57
24
9
28
2
60
69
23
11
8
27
18
47
12
63
49
38
40
20
30

>  <PUBCHEM_MMFF94_PARTIAL_CHARGES>  (1) 
33
1 -0.32
10 -0.34
11 -0.34
12 -0.34
13 -0.34
14 -0.34
15 -0.34
16 -0.34
17 -0.34
18 -0.34
19 -0.55
2 -0.32
20 -0.55
21 -0.55
22 -0.64
23 -0.64
24 -0.64
25 0.28
26 0.28
27 0.68
28 0.68
29 0.28
3 -0.32
30 0.68
31 0.68
32 0.68
33 0.68
4 1.18
5 1.22
6 1.27
7 -0.34
8 -0.34
9 -0.34

>  <PUBCHEM_EFFECTIVE_ROTOR_COUNT>  (1) 
12

>  <PUBCHEM_PHARMACOPHORE_FEATURES>  (1) 
1
6 4 5 6 22 23 24 rings

>  <PUBCHEM_HEAVY_ATOM_COUNT>  (1) 
33

>  <PUBCHEM_ATOM_DEF_STEREO_COUNT>  (1) 
0

>  <PUBCHEM_ATOM_UDEF_STEREO_COUNT>  (1) 
1

>  <PUBCHEM_BOND_DEF_STEREO_COUNT>  (1) 
0

>  <PUBCHEM_BOND_UDEF_STEREO_COUNT>  (1) 
0

>  <PUBCHEM_ISOTOPIC_ATOM_COUNT>  (1) 
0

>  <PUBCHEM_COMPONENT_COUNT>  (1) 
1

>  <PUBCHEM_CACTVS_TAUTO_COUNT>  (1) 
1

>  <PUBCHEM_CONFORMER_ID>  (1) 
0000BA4600000001

>  <PUBCHEM_MMFF94_ENERGY>  (1) 
15.3666

>  <PUBCHEM_FEATURE_SELFOVERLAP>  (1) 
5.074

>  <PUBCHEM_SHAPE_FINGERPRINT>  (1) 
10006869 2 18413669102216309876
10074138 170 17759217627890983176
11456790 92 18042137475388365825
12160290 23 17762870214561777604
12549972 3 17389342109395522589
12633257 1 18411423929590007527
12788726 201 18262246499959260722
13135754 10 17903075534767895666
133893 2 17836329981966477470
13583140 156 18046928235827545899
14466204 15 18337393721618173571
14955137 171 18408612443597197106
15219462 58 17612887297484399103
15420108 30 17843962787191389380
15475509 84 18334295318783183072
16114785 44 17697559296411391498
17974551 9 17896047713903819451
17980427 23 18060129981579088495
17980427 26 17978506769481232836
18681886 176 17344652523635716700
21860390 5 18200892741669283199
345986 75 17968931986071936490
3552219 110 17750530502911140286
376196 1 17266116744557963028
394222 165 17912097349247218914
54728670 133 18051395280750980400
57527573 199 17834949781383756389
58260988 114 17390782276914316474
6086070 43 18190717839892194263
7288768 16 16969421297087357708
79837 15 17399788303209968536
9777508 108 17473827221332306386

>  <PUBCHEM_SHAPE_MULTIPOLES>  (1) 
576.45
10.12
6.63
3.44
11.48
16.22
4.03
-8.04
-11.25
-5.27
-0.7
-0.23
-3.42
-1.57

>  <PUBCHEM_SHAPE_SELFOVERLAP>  (1) 
1108.357

>  <PUBCHEM_SHAPE_VOLUME>  (1) 
353.6

>  <PUBCHEM_COORDINATE_TYPE>  (1) 
2
5
10

$$$$
