47695
     RDKit          3D

 20 22  0  0  0  0  0  0  0  0999 V2000
   -0.9151   -1.9853    0.2011 O   0  0  0  0  0  0  0  0  0  0  0  0
    3.2626   -0.3346    0.1908 N   0  0  0  0  0  0  0  0  0  0  0  0
   -0.3279    0.0446   -0.7360 N   0  0  0  0  0  0  0  0  0  0  0  0
   -2.4380    1.9426    0.5127 N   0  0  0  0  0  0  0  0  0  0  0  0
    3.8778    0.3385   -0.9617 C   0  0  0  0  0  0  0  0  0  0  0  0
    4.0042   -0.0538    1.4282 C   0  0  0  0  0  0  0  0  0  0  0  0
    5.3282   -0.1080   -1.1517 C   0  0  0  0  0  0  0  0  0  0  0  0
    5.4587   -0.5134    1.3162 C   0  0  0  0  0  0  0  0  0  0  0  0
    6.1487    0.1188    0.1129 C   0  0  0  0  0  0  0  0  0  0  0  0
    1.8631    0.0672    0.3306 C   0  0  0  0  0  0  0  0  0  0  0  0
    1.0690   -0.3385   -0.9043 C   0  0  0  0  0  0  0  0  0  0  0  0
   -0.6704    1.4137   -1.0928 C   0  0  0  0  0  0  0  0  0  0  0  0
   -1.0557    2.1687    0.1629 C   0  0  0  0  0  0  0  0  0  0  0  0
   -1.2343   -0.8559   -0.1781 C   0  0  0  0  0  0  0  0  0  0  0  0
   -2.6723   -0.4803   -0.0382 C   0  0  0  0  0  0  0  0  0  0  0  0
   -3.1700    0.7839    0.3319 C   0  0  0  0  0  0  0  0  0  0  0  0
   -3.5685   -1.5547   -0.2372 C   0  0  0  0  0  0  0  0  0  0  0  0
   -4.5714    0.9057    0.4927 C   0  0  0  0  0  0  0  0  0  0  0  0
   -4.9424   -1.3965   -0.0754 C   0  0  0  0  0  0  0  0  0  0  0  0
   -5.4463   -0.1624    0.2953 C   0  0  0  0  0  0  0  0  0  0  0  0
  1 14  2  0
  2  5  1  0
  2  6  1  0
  2 10  1  0
  3 11  1  0
  3 12  1  0
  3 14  1  0
  4 13  1  0
  4 16  1  0
  5  7  1  0
  6  8  1  0
  7  9  1  0
  8  9  1  0
 10 11  1  0
 12 13  1  0
 14 15  1  0
 15 16  2  0
 15 17  1  0
 16 18  1  0
 17 19  2  0
 18 20  2  0
 19 20  1  0
M  END
>  <PUBCHEM_COMPOUND_CID>  (1) 
47695

>  <PUBCHEM_CONFORMER_RMSD>  (1) 
0.8

>  <PUBCHEM_CONFORMER_DIVERSEORDER>  (1) 
1
9
22
12
3
8
20
16
24
4
13
5
25
14
21
2
18
10
19
23
11
7
15
6
17

>  <PUBCHEM_MMFF94_PARTIAL_CHARGES>  (1) 
22
1 -0.57
10 0.27
11 0.3
12 0.3
13 0.37
14 0.54
15 0.09
16 0.1
17 -0.15
18 -0.15
19 -0.15
2 -0.81
20 -0.15
3 -0.66
39 0.4
4 -0.87
40 0.15
41 0.15
42 0.15
43 0.15
5 0.27
6 0.27

>  <PUBCHEM_EFFECTIVE_ROTOR_COUNT>  (1) 
5

>  <PUBCHEM_PHARMACOPHORE_FEATURES>  (1) 
7
1 1 acceptor
1 2 cation
1 4 cation
1 4 donor
6 15 16 17 18 19 20 rings
6 2 5 6 7 8 9 rings
7 3 4 12 13 14 15 16 rings

>  <PUBCHEM_HEAVY_ATOM_COUNT>  (1) 
20

>  <PUBCHEM_ATOM_DEF_STEREO_COUNT>  (1) 
0

>  <PUBCHEM_ATOM_UDEF_STEREO_COUNT>  (1) 
0

>  <PUBCHEM_BOND_DEF_STEREO_COUNT>  (1) 
0

>  <PUBCHEM_BOND_UDEF_STEREO_COUNT>  (1) 
0

>  <PUBCHEM_ISOTOPIC_ATOM_COUNT>  (1) 
0

>  <PUBCHEM_COMPONENT_COUNT>  (1) 
1

>  <PUBCHEM_CACTVS_TAUTO_COUNT>  (1) 
2

>  <PUBCHEM_CONFORMER_ID>  (1) 
0000BA4F00000001

>  <PUBCHEM_MMFF94_ENERGY>  (1) 
54.7616

>  <PUBCHEM_FEATURE_SELFOVERLAP>  (1) 
35.531

>  <PUBCHEM_SHAPE_FINGERPRINT>  (1) 
10 15 17845923118303708546
10366900 7 18259988184458388304
11045977 3 17917706920428701241
11132069 177 18342461417776014949
11315181 36 18260268576734074724
12011746 2 18272647935623758781
12107183 9 17613711518961301784
12236239 1 17821449058135607604
12390115 104 17915191126261065433
12596602 18 17749111114460416784
13288520 33 18411420635586812023
13533116 47 17531241739187933050
13551218 46 18115019706603556258
13862211 1 18409445929756991183
14573314 32 17989213620401868662
17349148 13 18260834816669439911
17804303 29 18343021124923723673
17834072 33 18113901576313079156
1813 80 17241053115135872574
18785283 64 17559099085706030728
18927931 339 18343586274317320599
19489759 90 18272933825636867803
200 152 16515682230222505348
20645477 56 17131824378926704564
20645477 70 15357967942125478114
21033648 29 16558456505350101112
21065198 48 18040995095148324880
21267235 1 18339089284750002871
2297311 6 18272661138321519892
23175994 123 16845575322348548008
23366157 5 17899700355903202517
23402539 116 18342452668943587431
23557571 272 18059307490735492893
23559900 14 18271242819550241856
26918003 58 16153430549403328904
3009799 131 18338503193612764733
335352 9 18411136957719198685
351380 3 17967248706631131170
5104073 3 18268157624772830945
59755656 215 17988650662228180990
59755656 520 14405182872005050316

>  <PUBCHEM_SHAPE_MULTIPOLES>  (1) 
390.78
13.92
1.64
1.09
10.95
0.36
0.04
-2.22
2.11
-2.03
0.04
1.35
0.05
-0.56

>  <PUBCHEM_SHAPE_SELFOVERLAP>  (1) 
818.927

>  <PUBCHEM_SHAPE_VOLUME>  (1) 
219

>  <PUBCHEM_COORDINATE_TYPE>  (1) 
2
5
10

$$$$
