47691
     RDKit          3D

 24 26  0  0  0  0  0  0  0  0999 V2000
   -0.9510    1.8269    1.8720 O   0  0  0  0  0  0  0  0  0  0  0  0
   -1.3476    0.5331   -0.0263 N   0  0  0  0  0  0  0  0  0  0  0  0
    1.4025   -0.3438   -0.4889 N   0  0  0  0  0  0  0  0  0  0  0  0
   -5.3126   -1.2820    0.0552 N   0  0  0  0  0  0  0  0  0  0  0  0
   -0.9175    0.1619   -1.3703 C   0  0  0  0  0  0  0  0  0  0  0  0
    0.2653   -0.7997   -1.3181 C   0  0  0  0  0  0  0  0  0  0  0  0
   -2.5625   -0.0845    0.4825 C   0  0  0  0  0  0  0  0  0  0  0  0
   -3.8196    0.6949    0.1015 C   0  0  0  0  0  0  0  0  0  0  0  0
    1.6050    1.0548   -0.3954 C   0  0  0  0  0  0  0  0  0  0  0  0
   -0.6174    1.4235    0.7600 C   0  0  0  0  0  0  0  0  0  0  0  0
    0.6604    1.9208    0.1943 C   0  0  0  0  0  0  0  0  0  0  0  0
   -5.1274    0.0628    0.5868 C   0  0  0  0  0  0  0  0  0  0  0  0
    2.3512   -1.3249   -0.0886 C   0  0  0  0  0  0  0  0  0  0  0  0
    2.8035    1.6239   -0.8712 C   0  0  0  0  0  0  0  0  0  0  0  0
    0.9187    3.2940    0.3176 C   0  0  0  0  0  0  0  0  0  0  0  0
    3.0523    2.9936   -0.7602 C   0  0  0  0  0  0  0  0  0  0  0  0
    2.1116    3.8267   -0.1642 C   0  0  0  0  0  0  0  0  0  0  0  0
    3.2499   -1.0602    0.9531 C   0  0  0  0  0  0  0  0  0  0  0  0
    2.3995   -2.5689   -0.7315 C   0  0  0  0  0  0  0  0  0  0  0  0
   -5.3641   -1.2555   -1.4078 C   0  0  0  0  0  0  0  0  0  0  0  0
   -6.5318   -1.8865    0.5949 C   0  0  0  0  0  0  0  0  0  0  0  0
    4.1807   -2.0223    1.3451 C   0  0  0  0  0  0  0  0  0  0  0  0
    3.3302   -3.5310   -0.3394 C   0  0  0  0  0  0  0  0  0  0  0  0
    4.2208   -3.2576    0.6989 C   0  0  0  0  0  0  0  0  0  0  0  0
  1 10  2  0
  2  5  1  0
  2  7  1  0
  2 10  1  0
  3  6  1  0
  3  9  1  0
  3 13  1  0
  4 12  1  0
  4 20  1  0
  4 21  1  0
  5  6  1  0
  7  8  1  0
  8 12  1  0
  9 11  2  0
  9 14  1  0
 10 11  1  0
 11 15  1  0
 13 18  2  0
 13 19  1  0
 14 16  2  0
 15 17  2  0
 16 17  1  0
 18 22  1  0
 19 23  2  0
 22 24  2  0
 23 24  1  0
M  END
>  <PUBCHEM_COMPOUND_CID>  (1) 
47691

>  <PUBCHEM_CONFORMER_RMSD>  (1) 
0.8

>  <PUBCHEM_CONFORMER_DIVERSEORDER>  (1) 
6
5
21
42
37
8
31
10
22
55
7
43
48
44
20
1
34
3
30
52
13
39
40
17
46
2
24
35
11
53
9
4
23
28
38
26
51
18
14
27
41
32
33
36
47
12
49
50
45
54
29
16
19
15
25

>  <PUBCHEM_MMFF94_PARTIAL_CHARGES>  (1) 
32
1 -0.57
10 0.54
11 0.09
12 0.27
13 0.1
14 -0.15
15 -0.15
16 -0.15
17 -0.15
18 -0.15
19 -0.15
2 -0.66
20 0.27
21 0.27
22 -0.15
23 -0.15
24 -0.15
3 -0.57
35 0.15
36 0.15
37 0.15
38 0.15
39 0.15
4 -0.81
40 0.15
47 0.15
48 0.15
49 0.15
5 0.3
6 0.37
7 0.3
9 0.1

>  <PUBCHEM_EFFECTIVE_ROTOR_COUNT>  (1) 
5.8

>  <PUBCHEM_PHARMACOPHORE_FEATURES>  (1) 
6
1 1 acceptor
1 3 cation
1 4 cation
6 13 18 19 22 23 24 rings
6 9 11 14 15 16 17 rings
7 2 3 5 6 9 10 11 rings

>  <PUBCHEM_HEAVY_ATOM_COUNT>  (1) 
24

>  <PUBCHEM_ATOM_DEF_STEREO_COUNT>  (1) 
0

>  <PUBCHEM_ATOM_UDEF_STEREO_COUNT>  (1) 
0

>  <PUBCHEM_BOND_DEF_STEREO_COUNT>  (1) 
0

>  <PUBCHEM_BOND_UDEF_STEREO_COUNT>  (1) 
0

>  <PUBCHEM_ISOTOPIC_ATOM_COUNT>  (1) 
0

>  <PUBCHEM_COMPONENT_COUNT>  (1) 
1

>  <PUBCHEM_CACTVS_TAUTO_COUNT>  (1) 
1

>  <PUBCHEM_CONFORMER_ID>  (1) 
0000BA4B00000006

>  <PUBCHEM_MMFF94_ENERGY>  (1) 
89.8327

>  <PUBCHEM_FEATURE_SELFOVERLAP>  (1) 
30.461

>  <PUBCHEM_SHAPE_FINGERPRINT>  (1) 
1100329 8 18267583688488101646
11265709 11 18265619766935656056
11405975 8 18410578345472074257
11578080 2 16373569150417095532
11796584 16 18040990697154964099
11963148 33 18049155872351038915
12107183 9 18125171442171361625
12293681 160 17556037010041936136
12553582 1 17977127685631478346
12592029 89 18338802345831444200
12597179 24 17898290764509829057
12730499 353 18119820346337429297
13009979 54 17845102778584944624
13083527 12 18409727327350340048
13140716 1 18053376892872882576
13533116 47 18335985363445942387
13955234 65 18339080522415397801
13968360 50 18190462847435917324
15250474 111 18129936918787215799
15927050 60 17979919633955261390
17492 89 18411141320910293787
1813 80 18339358544385978254
18222031 100 18269559347178923710
19319366 153 18054788657086243165
20567600 70 18334574633496962770
20600515 1 17912651206786860749
20645477 70 18333733554583100827
21033650 10 15791720868467832709
21344244 78 18272642442007062585
21421861 104 18199491925248477769
229495 10 18336531807149105405
23559900 14 18409441467317216537
25222932 49 17911808182696764023
3421961 26 18410291410742286137
376196 1 14422116600818431839
394222 165 18129111184847601144
4058900 60 18046083806307436940
4340502 62 18192151714127663337
44802255 64 16087330256311290332
463206 1 17968944050635694747
484985 159 17106209893927059282
5104073 3 18343029900227459025
6025842 7 18336828714037885053
6433294 58 18337677541489506155
7970288 3 18192148187807390234
9999458 23 18194126445469702540

>  <PUBCHEM_SHAPE_MULTIPOLES>  (1) 
473.1
10.99
4.55
1.27
21.15
1.13
-0.01
-10.23
-1.35
-6.77
-0.14
0.09
-0.13
-1.25

>  <PUBCHEM_SHAPE_SELFOVERLAP>  (1) 
1000.423

>  <PUBCHEM_SHAPE_VOLUME>  (1) 
263.8

>  <PUBCHEM_COORDINATE_TYPE>  (1) 
2
5
10

$$$$
