47704
     RDKit          3D

 16 17  0  0  0  0  0  0  0  0999 V2000
    0.8898    2.7770   -0.0493 O   0  0  0  0  0  0  0  0  0  0  0  0
   -5.1071    0.1956    0.8186 O   0  0  0  0  0  0  0  0  0  0  0  0
    3.6946   -2.0352    0.1244 O   0  0  0  0  0  0  0  0  0  0  0  0
    4.0220    0.1355    0.1192 O   0  0  0  0  0  0  0  0  0  0  0  0
   -2.4595   -0.0226   -0.1834 N   0  0  0  0  0  0  0  0  0  0  0  0
   -0.3613    2.1867   -0.1027 N   0  0  0  0  0  0  0  0  0  0  0  0
    1.9027    1.8348    0.0052 N   0  0  0  0  0  0  0  0  0  0  0  0
    3.2500   -0.8582    0.0919 N   0  0  0  0  0  0  0  0  0  0  0  0
   -1.0697   -0.1936   -0.1166 C   0  0  0  0  0  0  0  0  0  0  0  0
   -0.1442    0.8656   -0.0821 C   0  0  0  0  0  0  0  0  0  0  0  0
    1.2948    0.6421   -0.0135 C   0  0  0  0  0  0  0  0  0  0  0  0
   -3.3847   -1.1188   -0.2184 C   0  0  0  0  0  0  0  0  0  0  0  0
    1.8553   -0.6480    0.0230 C   0  0  0  0  0  0  0  0  0  0  0  0
   -0.4885   -1.4740   -0.0793 C   0  0  0  0  0  0  0  0  0  0  0  0
    0.9128   -1.6918   -0.0125 C   0  0  0  0  0  0  0  0  0  0  0  0
   -4.8070   -0.5952   -0.3246 C   0  0  0  0  0  0  0  0  0  0  0  0
  1  6  1  0
  1  7  1  0
  2 16  1  0
  3  8  1  0
  4  8  2  0
  5  9  1  0
  5 12  1  0
  6 10  2  0
  7 11  2  0
  8 13  1  0
  9 10  1  0
  9 14  2  0
 10 11  1  0
 11 13  1  0
 12 16  1  0
 13 15  2  0
 14 15  1  0
M  CHG  2   3  -1   8   1
M  END
>  <PUBCHEM_COMPOUND_CID>  (1) 
47704

>  <PUBCHEM_CONFORMER_RMSD>  (1) 
0.6

>  <PUBCHEM_CONFORMER_DIVERSEORDER>  (1) 
1
7
2
9
5
8
10
4
3
6

>  <PUBCHEM_MMFF94_PARTIAL_CHARGES>  (1) 
20
1 0.24
10 0.29
11 0.29
12 0.37
13 0.13
14 -0.15
15 -0.15
16 0.28
17 0.4
2 -0.68
20 0.15
21 0.15
24 0.4
3 -0.52
4 -0.52
5 -0.87
6 -0.41
7 -0.41
8 0.91
9 0.1

>  <PUBCHEM_EFFECTIVE_ROTOR_COUNT>  (1) 
4

>  <PUBCHEM_PHARMACOPHORE_FEATURES>  (1) 
11
1 2 acceptor
1 2 donor
1 3 acceptor
1 3 anion
1 4 acceptor
1 5 cation
1 5 donor
1 6 acceptor
1 7 acceptor
5 1 6 7 10 11 rings
6 9 10 11 13 14 15 rings

>  <PUBCHEM_HEAVY_ATOM_COUNT>  (1) 
16

>  <PUBCHEM_ATOM_DEF_STEREO_COUNT>  (1) 
0

>  <PUBCHEM_ATOM_UDEF_STEREO_COUNT>  (1) 
0

>  <PUBCHEM_BOND_DEF_STEREO_COUNT>  (1) 
0

>  <PUBCHEM_BOND_UDEF_STEREO_COUNT>  (1) 
0

>  <PUBCHEM_ISOTOPIC_ATOM_COUNT>  (1) 
0

>  <PUBCHEM_COMPONENT_COUNT>  (1) 
1

>  <PUBCHEM_CACTVS_TAUTO_COUNT>  (1) 
2

>  <PUBCHEM_CONFORMER_ID>  (1) 
0000BA5800000001

>  <PUBCHEM_MMFF94_ENERGY>  (1) 
49.0583

>  <PUBCHEM_FEATURE_SELFOVERLAP>  (1) 
56.086

>  <PUBCHEM_SHAPE_FINGERPRINT>  (1) 
10967382 1 18410571825152335318
11471102 20 18409725192635257199
11680986 33 18192715767750432394
12032990 46 18410292471657568238
13140716 1 18265888249610156642
13862211 1 18410004412527940034
13922767 16 18411980291020755379
14115302 16 17676499353540537606
14251717 144 18411133675551995887
14252887 29 18273220772175378510
15042514 8 17905888080915540498
15196674 1 18338515244389027156
15375462 189 18187640271927109283
15442244 35 18413108381450537745
15501101 241 18259982712627868077
15536298 74 18272367632708733881
16945 1 18410566323383508262
18785283 64 17970915693758174325
193761 8 17761772162706034078
20645477 70 18337383937661950887
20671657 1 18195810897536214341
20871998 22 18271250400146303550
21267235 1 18410581647795620070
21296965 67 18411132502872722316
221490 88 18191308397610674403
23402539 116 18271515421013859774
23463225 33 18411136948000382438
23598291 2 18057874926343645551
2748010 2 18266441158025089204
3071541 12 18194683897801362621
3071541 37 18190184670682788804
34934 24 18339355383516979498
537710 114 18335425685882807532
7364860 26 18269551818037911120
84936 182 17771062993106358745
8809292 202 18114185267646285339

>  <PUBCHEM_SHAPE_MULTIPOLES>  (1) 
285.87
7.6
2.25
0.62
7.54
1.11
-0.01
-2.46
-0.73
-1.57
0.04
0.26
-0.02
-0.23

>  <PUBCHEM_SHAPE_SELFOVERLAP>  (1) 
606.148

>  <PUBCHEM_SHAPE_VOLUME>  (1) 
160.6

>  <PUBCHEM_COORDINATE_TYPE>  (1) 
2
5
10

$$$$
