47706
     RDKit          3D

 26 27  0  0  0  0  0  0  0  0999 V2000
    0.1267    1.5663   -0.6956 O   0  0  0  0  0  0  0  0  0  0  0  0
   -3.1002   -1.3686    1.1207 O   0  0  0  0  0  0  0  0  0  0  0  0
   -1.6226    2.9893   -1.0767 O   0  0  0  0  0  0  0  0  0  0  0  0
    4.2574    1.1780    0.2088 N   0  0  0  0  0  0  0  0  0  0  0  0
   -1.9301    0.8898   -0.0787 N   0  0  0  0  0  0  0  0  0  0  0  0
    4.2685   -0.2606   -0.0915 C   0  0  0  0  0  0  0  0  0  0  0  0
    4.9034    1.4563    1.4991 C   0  0  0  0  0  0  0  0  0  0  0  0
    5.6976   -0.8042   -0.1359 C   0  0  0  0  0  0  0  0  0  0  0  0
    6.3530    0.9688    1.5070 C   0  0  0  0  0  0  0  0  0  0  0  0
    6.4416   -0.5136    1.1624 C   0  0  0  0  0  0  0  0  0  0  0  0
    2.8880    1.6918    0.2009 C   0  0  0  0  0  0  0  0  0  0  0  0
    2.4359    1.9720   -1.2286 C   0  0  0  0  0  0  0  0  0  0  0  0
    1.0195    2.5295   -1.2674 C   0  0  0  0  0  0  0  0  0  0  0  0
   -1.0518   -2.7388   -0.3869 C   0  0  0  0  0  0  0  0  0  0  0  0
    0.2394   -3.5501   -0.5262 C   0  0  0  0  0  0  0  0  0  0  0  0
   -2.1292   -3.4474    0.4324 C   0  0  0  0  0  0  0  0  0  0  0  0
    1.3265   -2.8303   -1.3253 C   0  0  0  0  0  0  0  0  0  0  0  0
   -3.4038   -2.6179    0.5155 C   0  0  0  0  0  0  0  0  0  0  0  0
   -1.1955    1.9209   -0.6565 C   0  0  0  0  0  0  0  0  0  0  0  0
    2.5592   -3.7049   -1.4966 C   0  0  0  0  0  0  0  0  0  0  0  0
   -3.8743   -0.2988    0.7529 C   0  0  0  0  0  0  0  0  0  0  0  0
   -3.3055    0.8270    0.1573 C   0  0  0  0  0  0  0  0  0  0  0  0
   -5.2495   -0.3468    0.9821 C   0  0  0  0  0  0  0  0  0  0  0  0
   -4.1117    1.9047   -0.2091 C   0  0  0  0  0  0  0  0  0  0  0  0
   -6.0557    0.7310    0.6156 C   0  0  0  0  0  0  0  0  0  0  0  0
   -5.4869    1.8565    0.0201 C   0  0  0  0  0  0  0  0  0  0  0  0
  1 13  1  0
  1 19  1  0
  2 18  1  0
  2 21  1  0
  3 19  2  0
  4  6  1  0
  4  7  1  0
  4 11  1  0
  5 19  1  0
  5 22  1  0
  6  8  1  0
  7  9  1  0
  8 10  1  0
  9 10  1  0
 11 12  1  0
 12 13  1  0
 14 15  1  0
 14 16  1  0
 15 17  1  0
 16 18  1  0
 17 20  1  0
 21 22  2  0
 21 23  1  0
 22 24  1  0
 23 25  2  0
 24 26  2  0
 25 26  1  0
M  END
>  <PUBCHEM_COMPOUND_CID>  (1) 
47706

>  <PUBCHEM_CONFORMER_RMSD>  (1) 
1.4

>  <PUBCHEM_CONFORMER_DIVERSEORDER>  (1) 
1
27
33
6
11
34
30
21
39
35
38
13
31
28
23
2
36
8
22
25
15
29
7
32
10
4
18
9
3
37
19
12
24
26
20
16
17
5
14

>  <PUBCHEM_MMFF94_PARTIAL_CHARGES>  (1) 
22
1 -0.43
11 0.27
13 0.28
18 0.28
19 0.78
2 -0.36
21 0.08
22 0.12
23 -0.15
24 -0.15
25 -0.15
26 -0.15
3 -0.57
4 -0.81
5 -0.55
56 0.37
57 0.15
58 0.15
59 0.15
6 0.27
60 0.15
7 0.27

>  <PUBCHEM_EFFECTIVE_ROTOR_COUNT>  (1) 
14.2

>  <PUBCHEM_PHARMACOPHORE_FEATURES>  (1) 
8
1 2 acceptor
1 20 hydrophobe
1 3 acceptor
1 4 cation
1 5 donor
4 14 15 16 17 hydrophobe
6 21 22 23 24 25 26 rings
6 4 6 7 8 9 10 rings

>  <PUBCHEM_HEAVY_ATOM_COUNT>  (1) 
26

>  <PUBCHEM_ATOM_DEF_STEREO_COUNT>  (1) 
0

>  <PUBCHEM_ATOM_UDEF_STEREO_COUNT>  (1) 
0

>  <PUBCHEM_BOND_DEF_STEREO_COUNT>  (1) 
0

>  <PUBCHEM_BOND_UDEF_STEREO_COUNT>  (1) 
0

>  <PUBCHEM_ISOTOPIC_ATOM_COUNT>  (1) 
0

>  <PUBCHEM_COMPONENT_COUNT>  (1) 
1

>  <PUBCHEM_CACTVS_TAUTO_COUNT>  (1) 
2

>  <PUBCHEM_CONFORMER_ID>  (1) 
0000BA5A00000001

>  <PUBCHEM_MMFF94_ENERGY>  (1) 
41.8725

>  <PUBCHEM_FEATURE_SELFOVERLAP>  (1) 
40.594

>  <PUBCHEM_SHAPE_FINGERPRINT>  (1) 
10864689 126 17978801107584483583
10939801 23 18048321338703631148
11112241 14 17703782643687992649
11524674 6 18131346418834931510
12422481 6 18409167731713609970
13402501 40 18338521833080063806
13561361 72 18408603639573227094
14117953 113 18335423435193513149
14647877 51 18124317103982177222
14725015 67 17901668167930795643
15348495 7 18270956959670710176
15537594 2 17530958069098078744
16110190 28 18262797484139134836
1979834 28 18341057341400938804
20642791 35 18048885083505148237
21033648 29 17916571164104651594
21344244 246 18411692181037355015
21795232 338 18198050569343418144
221357 26 8502653705788774560
229767 44 18337106860267514634
23559900 14 18191602856214856063
238918 7 18342177761035403334
3383291 50 18260831548927789603
338550 245 18260835946520002262
4093350 32 17131000754655147263
5085150 59 18340481261927938791
532947 4 18338239246260347695
559249 180 17967529069675996985
59755656 215 18340210687409134582

>  <PUBCHEM_SHAPE_MULTIPOLES>  (1) 
507.5
15.25
4.7
1.35
8.57
4.45
0.01
-5.04
-7.69
-0.71
1.88
1.2
-0.03
1.9

>  <PUBCHEM_SHAPE_SELFOVERLAP>  (1) 
1013.368

>  <PUBCHEM_SHAPE_VOLUME>  (1) 
299.4

>  <PUBCHEM_COORDINATE_TYPE>  (1) 
2
5
10

$$$$
