47714
     RDKit          3D

 28 29  0  0  0  0  0  0  0  0999 V2000
   -0.4419    2.0744   -0.6004 O   0  0  0  0  0  0  0  0  0  0  0  0
   -3.3254   -1.4815    0.5690 O   0  0  0  0  0  0  0  0  0  0  0  0
   -2.3215    3.3770   -0.6104 O   0  0  0  0  0  0  0  0  0  0  0  0
    3.7458    1.8786    0.1027 N   0  0  0  0  0  0  0  0  0  0  0  0
   -2.4052    1.0877   -0.1098 N   0  0  0  0  0  0  0  0  0  0  0  0
    4.4081    1.9853    1.4083 C   0  0  0  0  0  0  0  0  0  0  0  0
    3.8544    0.5513   -0.5178 C   0  0  0  0  0  0  0  0  0  0  0  0
    5.9173    1.7230    1.4072 C   0  0  0  0  0  0  0  0  0  0  0  0
    5.2321    0.3191   -1.1373 C   0  0  0  0  0  0  0  0  0  0  0  0
    6.2676    0.2496    1.2440 C   0  0  0  0  0  0  0  0  0  0  0  0
    6.2925   -0.2431   -0.1969 C   0  0  0  0  0  0  0  0  0  0  0  0
    2.3336    2.2522    0.2417 C   0  0  0  0  0  0  0  0  0  0  0  0
    1.7994    2.8030   -1.0765 C   0  0  0  0  0  0  0  0  0  0  0  0
    0.3398    3.2204   -0.9572 C   0  0  0  0  0  0  0  0  0  0  0  0
    0.0079   -4.1360   -0.1273 C   0  0  0  0  0  0  0  0  0  0  0  0
   -1.0689   -3.0690   -0.3362 C   0  0  0  0  0  0  0  0  0  0  0  0
    1.4293   -3.6232   -0.3758 C   0  0  0  0  0  0  0  0  0  0  0  0
   -2.4629   -3.6270   -0.0528 C   0  0  0  0  0  0  0  0  0  0  0  0
    2.5103   -4.6681   -0.0958 C   0  0  0  0  0  0  0  0  0  0  0  0
   -3.5455   -2.5856   -0.2979 C   0  0  0  0  0  0  0  0  0  0  0  0
   -1.7869    2.2862   -0.4535 C   0  0  0  0  0  0  0  0  0  0  0  0
    3.9037   -4.0889   -0.2878 C   0  0  0  0  0  0  0  0  0  0  0  0
   -4.2034   -0.4334    0.4709 C   0  0  0  0  0  0  0  0  0  0  0  0
   -3.7588    0.8455    0.1351 C   0  0  0  0  0  0  0  0  0  0  0  0
   -5.5585   -0.6596    0.7127 C   0  0  0  0  0  0  0  0  0  0  0  0
   -4.6695    1.8979    0.0409 C   0  0  0  0  0  0  0  0  0  0  0  0
   -6.4690    0.3928    0.6183 C   0  0  0  0  0  0  0  0  0  0  0  0
   -6.0246    1.6715    0.2825 C   0  0  0  0  0  0  0  0  0  0  0  0
  1 14  1  0
  1 21  1  0
  2 20  1  0
  2 23  1  0
  3 21  2  0
  4  6  1  0
  4  7  1  0
  4 12  1  0
  5 21  1  0
  5 24  1  0
  6  8  1  0
  7  9  1  0
  8 10  1  0
  9 11  1  0
 10 11  1  0
 12 13  1  0
 13 14  1  0
 15 16  1  0
 15 17  1  0
 16 18  1  0
 17 19  1  0
 18 20  1  0
 19 22  1  0
 23 24  2  0
 23 25  1  0
 24 26  1  0
 25 27  2  0
 26 28  2  0
 27 28  1  0
M  END
>  <PUBCHEM_COMPOUND_CID>  (1) 
47714

>  <PUBCHEM_CONFORMER_RMSD>  (1) 
1.4

>  <PUBCHEM_CONFORMER_DIVERSEORDER>  (1) 
1
24
41
4
49
8
47
50
16
48
42
2
17
39
11
18
40
45
34
28
22
38
32
23
35
19
20
31
3
6
29
5
36
44
25
46
13
37
14
43
26
7
27
30
12
33
9
10
15
21

>  <PUBCHEM_MMFF94_PARTIAL_CHARGES>  (1) 
22
1 -0.43
12 0.27
14 0.28
2 -0.36
20 0.28
21 0.78
23 0.08
24 0.12
25 -0.15
26 -0.15
27 -0.15
28 -0.15
3 -0.57
4 -0.81
5 -0.55
6 0.27
62 0.37
63 0.15
64 0.15
65 0.15
66 0.15
7 0.27

>  <PUBCHEM_EFFECTIVE_ROTOR_COUNT>  (1) 
15.4

>  <PUBCHEM_PHARMACOPHORE_FEATURES>  (1) 
8
1 2 acceptor
1 22 hydrophobe
1 3 acceptor
1 4 cation
1 5 donor
5 15 16 17 18 19 hydrophobe
6 23 24 25 26 27 28 rings
7 4 6 7 8 9 10 11 rings

>  <PUBCHEM_HEAVY_ATOM_COUNT>  (1) 
28

>  <PUBCHEM_ATOM_DEF_STEREO_COUNT>  (1) 
0

>  <PUBCHEM_ATOM_UDEF_STEREO_COUNT>  (1) 
0

>  <PUBCHEM_BOND_DEF_STEREO_COUNT>  (1) 
0

>  <PUBCHEM_BOND_UDEF_STEREO_COUNT>  (1) 
0

>  <PUBCHEM_ISOTOPIC_ATOM_COUNT>  (1) 
0

>  <PUBCHEM_COMPONENT_COUNT>  (1) 
1

>  <PUBCHEM_CACTVS_TAUTO_COUNT>  (1) 
2

>  <PUBCHEM_CONFORMER_ID>  (1) 
0000BA6200000001

>  <PUBCHEM_MMFF94_ENERGY>  (1) 
52.8519

>  <PUBCHEM_FEATURE_SELFOVERLAP>  (1) 
40.594

>  <PUBCHEM_SHAPE_FINGERPRINT>  (1) 
10864689 126 18268720398379352910
10939801 23 18191024698241720544
11524674 6 18060418036545676685
12218070 45 17905870824249135536
13561361 72 18409443688000087198
14117953 113 18408604764664813469
14647877 51 18195526991771797662
15320467 1 18410015411875563470
15326923 133 18128254489734228006
15348495 7 18130220583464115320
20028762 73 18411418457547782646
20721686 56 18335708204621577691
21344244 246 18410282620126107423
229767 44 18337668736383900035
3383291 50 18337673143891264771
338550 245 18262805193167412740
373842 8 18337108939264028290
437795 96 18335981986810512739
5265222 85 18192446374622720820
532947 4 18338240363062627471
559249 180 18187079568853831513
59755656 215 18411704257525165204
6176135 31 18410292531961040888
9543594 6 18339078310902709838
9961470 85 18411697669056194323

>  <PUBCHEM_SHAPE_MULTIPOLES>  (1) 
548.66
16.37
6.53
1.05
2.15
7.91
-0.14
-5.49
-4.99
2.42
1.24
1.19
-0.57
1.14

>  <PUBCHEM_SHAPE_SELFOVERLAP>  (1) 
1088.28

>  <PUBCHEM_SHAPE_VOLUME>  (1) 
324.5

>  <PUBCHEM_COORDINATE_TYPE>  (1) 
2
5
10

$$$$
