47730
     RDKit          3D

 25 26  0  0  0  0  0  0  0  0999 V2000
    7.8777    1.0461    1.0007 O   0  0  0  0  0  0  0  0  0  0  0  0
   -1.1117    0.2461   -1.4477 O   0  0  0  0  0  0  0  0  0  0  0  0
    1.5020    0.8855   -1.5237 O   0  0  0  0  0  0  0  0  0  0  0  0
   -4.6789   -2.3336    0.4138 O   0  0  0  0  0  0  0  0  0  0  0  0
   -4.9540    2.4478    0.3503 O   0  0  0  0  0  0  0  0  0  0  0  0
   -6.0631   -0.0062    0.9981 O   0  0  0  0  0  0  0  0  0  0  0  0
    5.5297   -0.4213    0.3409 N   0  0  0  0  0  0  0  0  0  0  0  0
    2.1550   -1.2788   -0.9719 N   0  0  0  0  0  0  0  0  0  0  0  0
    5.8428    0.8600   -0.3069 C   0  0  0  0  0  0  0  0  0  0  0  0
    6.1014   -0.4542    1.6943 C   0  0  0  0  0  0  0  0  0  0  0  0
    4.0858   -0.6428    0.3820 C   0  0  0  0  0  0  0  0  0  0  0  0
    7.3536    1.0740   -0.3274 C   0  0  0  0  0  0  0  0  0  0  0  0
    7.6061   -0.2082    1.6272 C   0  0  0  0  0  0  0  0  0  0  0  0
    3.5764   -1.0650   -0.9883 C   0  0  0  0  0  0  0  0  0  0  0  0
    1.2287   -0.2783   -1.2430 C   0  0  0  0  0  0  0  0  0  0  0  0
   -0.1946   -0.7865   -1.1550 C   0  0  0  0  0  0  0  0  0  0  0  0
   -2.3430    0.1833   -0.8391 C   0  0  0  0  0  0  0  0  0  0  0  0
   -3.0373    1.3573   -0.5470 C   0  0  0  0  0  0  0  0  0  0  0  0
   -2.8983   -1.0544   -0.5144 C   0  0  0  0  0  0  0  0  0  0  0  0
   -4.1477   -1.1181    0.1026 C   0  0  0  0  0  0  0  0  0  0  0  0
   -4.2868    1.2935    0.0698 C   0  0  0  0  0  0  0  0  0  0  0  0
   -4.8419    0.0558    0.3947 C   0  0  0  0  0  0  0  0  0  0  0  0
   -3.9040   -3.4838    0.0810 C   0  0  0  0  0  0  0  0  0  0  0  0
   -4.3161    3.6701   -0.0146 C   0  0  0  0  0  0  0  0  0  0  0  0
   -6.0818    0.0118    2.4235 C   0  0  0  0  0  0  0  0  0  0  0  0
  1 12  1  0
  1 13  1  0
  2 16  1  0
  2 17  1  0
  3 15  2  0
  4 20  1  0
  4 23  1  0
  5 21  1  0
  5 24  1  0
  6 22  1  0
  6 25  1  0
  7  9  1  0
  7 10  1  0
  7 11  1  0
  8 14  1  0
  8 15  1  0
  9 12  1  0
 10 13  1  0
 11 14  1  0
 15 16  1  0
 17 18  2  0
 17 19  1  0
 18 21  1  0
 19 20  2  0
 20 22  1  0
 21 22  2  0
M  END
>  <PUBCHEM_COMPOUND_CID>  (1) 
47730

>  <PUBCHEM_CONFORMER_RMSD>  (1) 
1

>  <PUBCHEM_CONFORMER_DIVERSEORDER>  (1) 
1
70
54
40
20
5
9
36
57
62
53
30
13
61
39
65
2
58
47
16
67
64
43
17
69
12
8
25
60
37
22
45
55
15
27
18
21
49
34
63
56
46
26
31
35
38
24
41
68
14
50
44
4
7
19
66
52
28
6
32
33
59
23
51
11
48
3
42
10
29

>  <PUBCHEM_MMFF94_PARTIAL_CHARGES>  (1) 
28
1 -0.56
10 0.27
11 0.27
12 0.28
13 0.28
14 0.3
15 0.57
16 0.34
17 0.08
18 -0.15
19 -0.15
2 -0.36
20 0.08
21 0.08
22 0.08
23 0.28
24 0.28
25 0.28
3 -0.57
38 0.37
4 -0.36
41 0.15
42 0.15
5 -0.36
6 -0.36
7 -0.81
8 -0.73
9 0.27

>  <PUBCHEM_EFFECTIVE_ROTOR_COUNT>  (1) 
11.2

>  <PUBCHEM_PHARMACOPHORE_FEATURES>  (1) 
10
1 1 acceptor
1 2 acceptor
1 3 acceptor
1 4 acceptor
1 5 acceptor
1 6 acceptor
1 7 cation
1 8 donor
6 1 7 9 10 12 13 rings
6 17 18 19 20 21 22 rings

>  <PUBCHEM_HEAVY_ATOM_COUNT>  (1) 
25

>  <PUBCHEM_ATOM_DEF_STEREO_COUNT>  (1) 
0

>  <PUBCHEM_ATOM_UDEF_STEREO_COUNT>  (1) 
0

>  <PUBCHEM_BOND_DEF_STEREO_COUNT>  (1) 
0

>  <PUBCHEM_BOND_UDEF_STEREO_COUNT>  (1) 
0

>  <PUBCHEM_ISOTOPIC_ATOM_COUNT>  (1) 
0

>  <PUBCHEM_COMPONENT_COUNT>  (1) 
1

>  <PUBCHEM_CACTVS_TAUTO_COUNT>  (1) 
2

>  <PUBCHEM_CONFORMER_ID>  (1) 
0000BA7200000001

>  <PUBCHEM_MMFF94_ENERGY>  (1) 
86.2577

>  <PUBCHEM_FEATURE_SELFOVERLAP>  (1) 
50.765

>  <PUBCHEM_SHAPE_FINGERPRINT>  (1) 
10 15 18410296899631336480
11315181 36 18186516631225441567
12523318 42 18411704292259677127
12596602 18 18261110734343649952
13403585 85 18413109446454987533
13668630 136 14273455889933978018
13782708 43 12035743015145281676
14251764 18 18040716987415320844
14844126 61 18335988683503654883
14848160 23 12829206672694416446
14849402 71 18042129928809488860
15326921 28 17972028138071055901
15348495 7 18413105078605090378
15419008 91 11386643092253138990
15461852 350 17917421047547833349
15716309 27 17385439930007510510
17780758 139 18259703415463365647
18643901 69 7925619030434288201
190975 80 16732707173056331076
19377110 9 17822016415026135918
20281389 69 17704067383304026150
22061861 79 12612755713880524102
23522609 53 17677918806521150132
2838139 119 14764344942651395698
312425 54 18115023009623070554
3663271 9 18259979375870724274
5104073 3 18189618250306024018
5364581 5 18270115858670549744
5718773 13 15140972798017247691
6608658 132 12103574056516746379
9953998 17 18409728477953091675

>  <PUBCHEM_SHAPE_MULTIPOLES>  (1) 
469.31
22.53
2.64
1.58
36.72
0.46
0.61
4.71
12.63
-5.95
-0.04
0.3
-0.1
0.02

>  <PUBCHEM_SHAPE_SELFOVERLAP>  (1) 
958.697

>  <PUBCHEM_SHAPE_VOLUME>  (1) 
272.3

>  <PUBCHEM_COORDINATE_TYPE>  (1) 
2
5
10

$$$$
