47740
     RDKit          3D

 24 24  0  0  0  0  0  0  0  0999 V2000
    2.6577    0.1426   -0.2792 O   0  0  0  0  0  0  0  0  0  0  0  0
   -0.6733   -0.9212   -1.0059 O   0  0  0  0  0  0  0  0  0  0  0  0
   -5.7871    0.5374    0.4535 O   0  0  0  0  0  0  0  0  0  0  0  0
   -5.0489   -2.1324    0.4491 O   0  0  0  0  0  0  0  0  0  0  0  0
   -3.9435    2.4707   -0.2790 O   0  0  0  0  0  0  0  0  0  0  0  0
    1.7533   -1.9665   -0.5294 O   0  0  0  0  0  0  0  0  0  0  0  0
    6.2687    0.1591    0.4599 N   0  0  0  0  0  0  0  0  0  0  0  0
    4.9356    0.6985    0.1937 C   0  0  0  0  0  0  0  0  0  0  0  0
    6.7265   -0.6520   -0.6676 C   0  0  0  0  0  0  0  0  0  0  0  0
    7.2142    1.2424    0.7274 C   0  0  0  0  0  0  0  0  0  0  0  0
    3.9392   -0.4254   -0.0423 C   0  0  0  0  0  0  0  0  0  0  0  0
    8.0846   -1.2707   -0.3831 C   0  0  0  0  0  0  0  0  0  0  0  0
    6.7541    2.0961    1.8970 C   0  0  0  0  0  0  0  0  0  0  0  0
    1.6433   -0.7480   -0.5110 C   0  0  0  0  0  0  0  0  0  0  0  0
    0.3606    0.0062   -0.7427 C   0  0  0  0  0  0  0  0  0  0  0  0
   -1.9475   -0.5577   -0.6421 C   0  0  0  0  0  0  0  0  0  0  0  0
   -4.5227    0.1767    0.0928 C   0  0  0  0  0  0  0  0  0  0  0  0
   -4.1546   -1.1688    0.0918 C   0  0  0  0  0  0  0  0  0  0  0  0
   -3.5970    1.1532   -0.2753 C   0  0  0  0  0  0  0  0  0  0  0  0
   -2.8611   -1.5377   -0.2774 C   0  0  0  0  0  0  0  0  0  0  0  0
   -2.3035    0.7842   -0.6446 C   0  0  0  0  0  0  0  0  0  0  0  0
   -5.9163    1.4069    1.5760 C   0  0  0  0  0  0  0  0  0  0  0  0
   -5.1000   -2.4893    1.8291 C   0  0  0  0  0  0  0  0  0  0  0  0
   -4.4822    2.9958   -1.4907 C   0  0  0  0  0  0  0  0  0  0  0  0
  1 11  1  0
  1 14  1  0
  2 15  1  0
  2 16  1  0
  3 17  1  0
  3 22  1  0
  4 18  1  0
  4 23  1  0
  5 19  1  0
  5 24  1  0
  6 14  2  0
  7  8  1  0
  7  9  1  0
  7 10  1  0
  8 11  1  0
  9 12  1  0
 10 13  1  0
 14 15  1  0
 16 20  2  0
 16 21  1  0
 17 18  2  0
 17 19  1  0
 18 20  1  0
 19 21  2  0
M  END
>  <PUBCHEM_COMPOUND_CID>  (1) 
47740

>  <PUBCHEM_CONFORMER_RMSD>  (1) 
1

>  <PUBCHEM_CONFORMER_DIVERSEORDER>  (1) 
1
96
66
133
84
114
129
128
30
83
24
15
39
94
90
74
100
33
8
113
69
111
120
108
42
116
148
5
153
103
7
78
18
150
123
46
126
149
14
23
119
25
110
115
28
27
60
40
76
77
17
107
143
62
49
36
47
38
68
51
151
72
145
71
10
117
73
92
57
37
101
54
134
118
98
45
89
121
147
70
65
141
34
35
13
59
64
48
106
21
22
85
122
130
11
102
142
19
97
93
4
52
132
67
135
56
152
58
131
112
20
55
82
26
91
80
53
16
50
3
2
41
63
146
29
9
88
32
136
109
61
86
127
6
99
104
44
140
12
138
79
124
139
87
125
43
105
137
81
144
31
75
95

>  <PUBCHEM_MMFF94_PARTIAL_CHARGES>  (1) 
24
1 -0.43
10 0.27
11 0.28
14 0.66
15 0.34
16 0.08
17 0.08
18 0.08
19 0.08
2 -0.36
20 -0.15
21 -0.15
22 0.28
23 0.28
24 0.28
3 -0.36
4 -0.36
41 0.15
42 0.15
5 -0.36
6 -0.57
7 -0.81
8 0.27
9 0.27

>  <PUBCHEM_EFFECTIVE_ROTOR_COUNT>  (1) 
12

>  <PUBCHEM_PHARMACOPHORE_FEATURES>  (1) 
7
1 2 acceptor
1 3 acceptor
1 4 acceptor
1 5 acceptor
1 6 acceptor
1 7 cation
6 16 17 18 19 20 21 rings

>  <PUBCHEM_HEAVY_ATOM_COUNT>  (1) 
24

>  <PUBCHEM_ATOM_DEF_STEREO_COUNT>  (1) 
0

>  <PUBCHEM_ATOM_UDEF_STEREO_COUNT>  (1) 
0

>  <PUBCHEM_BOND_DEF_STEREO_COUNT>  (1) 
0

>  <PUBCHEM_BOND_UDEF_STEREO_COUNT>  (1) 
0

>  <PUBCHEM_ISOTOPIC_ATOM_COUNT>  (1) 
0

>  <PUBCHEM_COMPONENT_COUNT>  (1) 
1

>  <PUBCHEM_CACTVS_TAUTO_COUNT>  (1) 
1

>  <PUBCHEM_CONFORMER_ID>  (1) 
0000BA7C00000001

>  <PUBCHEM_MMFF94_ENERGY>  (1) 
86.9945

>  <PUBCHEM_FEATURE_SELFOVERLAP>  (1) 
35.54

>  <PUBCHEM_SHAPE_FINGERPRINT>  (1) 
10 15 18412824720288046282
10319926 262 18334857251071578056
10411042 1 18117846727941533731
10554248 39 16056883529418727924
11315181 36 17676490574774765983
12516196 113 11891332058921712838
12596602 18 18260541226191341712
13403585 85 18410572903189087637
14844126 61 18114751542368819275
14848160 23 11097851883355021476
14849402 71 17823706446441159476
14933364 13 18413389843937998500
15183329 4 16225764138688590146
15716309 27 15430033258118912810
17780758 139 17822012030086299795
19377110 9 17240476997070917776
20281389 69 18342453738643651328
22956985 138 17326338122457207067
23081809 10 14634860930353016934
23198884 109 11671783758603375739
23522609 53 16878809105697973564
23559900 14 18053382093693422774
2838139 119 17632289043629263396
2916195 48 18272363209599131828
3663271 9 18040426699260723240
4073 2 18261116300948754682
4938544 92 17531520989071209581
504843 32 16415190235019887326
5104073 3 18336828597958081186
5364581 5 18264488558191448408
59755656 520 15195289750540455391
9953998 17 18408609158532122225

>  <PUBCHEM_SHAPE_MULTIPOLES>  (1) 
453.71
22.84
2.57
1.32
38.18
0.7
0.53
3.49
7.15
-3.47
0.25
-0.53
0.36
3.5

>  <PUBCHEM_SHAPE_SELFOVERLAP>  (1) 
909.43

>  <PUBCHEM_SHAPE_VOLUME>  (1) 
269.4

>  <PUBCHEM_COORDINATE_TYPE>  (1) 
2
5
10

$$$$
