47758
     RDKit          3D

 25 26  0  0  0  0  0  0  0  0999 V2000
   -2.0999   -1.2030    0.8790 S   0  0  0  0  0  0  0  0  0  0  0  0
    2.2134    1.2085   -0.0838 O   0  0  0  0  0  0  0  0  0  0  0  0
    0.7825   -1.1770    0.5916 O   0  0  0  0  0  0  0  0  0  0  0  0
   -4.3854    0.0591   -0.2609 O   0  0  0  0  0  0  0  0  0  0  0  0
    0.7977   -1.7955   -1.6384 O   0  0  0  0  0  0  0  0  0  0  0  0
   -3.7913    2.2211    0.1870 O   0  0  0  0  0  0  0  0  0  0  0  0
   -1.2474   -1.5713   -0.5613 N   0  0  0  0  0  0  0  0  0  0  0  0
   -2.3886    0.4863    0.8284 N   0  0  0  0  0  0  0  0  0  0  0  0
    3.2934    2.0737   -0.5400 C   0  0  0  0  0  0  0  0  0  0  0  0
    4.6438    1.4512   -0.1145 C   0  0  0  0  0  0  0  0  0  0  0  0
    4.2014    0.0789    0.2202 C   0  0  0  0  0  0  0  0  0  0  0  0
    2.8183    0.0230    0.2405 C   0  0  0  0  0  0  0  0  0  0  0  0
    3.0893    3.4453    0.1053 C   0  0  0  0  0  0  0  0  0  0  0  0
    3.1818    2.1924   -2.0652 C   0  0  0  0  0  0  0  0  0  0  0  0
    4.9610   -1.0344    0.5328 C   0  0  0  0  0  0  0  0  0  0  0  0
    2.1381   -1.1335    0.5705 C   0  0  0  0  0  0  0  0  0  0  0  0
    4.2951   -2.2179    0.8611 C   0  0  0  0  0  0  0  0  0  0  0  0
    2.8918   -2.2669    0.8807 C   0  0  0  0  0  0  0  0  0  0  0  0
    0.1494   -1.5379   -0.6242 C   0  0  0  0  0  0  0  0  0  0  0  0
   -5.7815    0.3775   -0.2558 C   0  0  0  0  0  0  0  0  0  0  0  0
   -2.0625   -1.9208   -1.7152 C   0  0  0  0  0  0  0  0  0  0  0  0
   -6.5595   -0.7723   -0.8774 C   0  0  0  0  0  0  0  0  0  0  0  0
   -6.2264    0.6565    1.1718 C   0  0  0  0  0  0  0  0  0  0  0  0
   -3.5439    1.0173    0.2454 C   0  0  0  0  0  0  0  0  0  0  0  0
   -1.3705    1.3397    1.4226 C   0  0  0  0  0  0  0  0  0  0  0  0
  1  7  1  0
  1  8  1  0
  2  9  1  0
  2 12  1  0
  3 16  1  0
  3 19  1  0
  4 20  1  0
  4 24  1  0
  5 19  2  0
  6 24  2  0
  7 19  1  0
  7 21  1  0
  8 24  1  0
  8 25  1  0
  9 10  1  0
  9 13  1  0
  9 14  1  0
 10 11  1  0
 11 12  2  0
 11 15  1  0
 12 16  1  0
 15 17  2  0
 16 18  2  0
 17 18  1  0
 20 22  1  0
 20 23  1  0
M  END
>  <PUBCHEM_COMPOUND_CID>  (1) 
47758

>  <PUBCHEM_CONFORMER_RMSD>  (1) 
1.2

>  <PUBCHEM_CONFORMER_DIVERSEORDER>  (1) 
3
53
91
42
144
87
113
24
115
14
82
138
85
76
69
102
75
119
135
48
29
22
47
104
110
98
123
88
52
109
63
17
117
49
64
33
133
114
139
6
89
112
72
60
21
55
40
121
116
74
128
30
51
90
65
126
18
106
140
67
142
15
136
103
38
39
31
79
134
143
45
37
122
23
130
125
61
111
105
95
86
2
46
70
25
73
1
50
108
7
68
77
84
20
13
80
94
131
81
12
101
32
9
66
10
44
28
54
16
26
41
36
43
107
34
83
59
62
96
57
56
124
141
137
100
92
35
58
4
27
99
97
78
129
71
118
11
127
93
5
19
132
8
120

>  <PUBCHEM_MMFF94_PARTIAL_CHARGES>  (1) 
24
1 0.02
10 0.14
11 -0.14
12 0.08
15 -0.15
16 0.08
17 -0.15
18 -0.15
19 0.78
2 -0.36
20 0.28
21 0.3
24 0.78
25 0.3
3 -0.23
34 0.15
35 0.15
36 0.15
4 -0.43
5 -0.57
6 -0.57
7 -0.37
8 -0.37
9 0.28

>  <PUBCHEM_EFFECTIVE_ROTOR_COUNT>  (1) 
8.6

>  <PUBCHEM_PHARMACOPHORE_FEATURES>  (1) 
7
1 2 acceptor
1 5 acceptor
1 6 acceptor
3 20 22 23 hydrophobe
3 9 13 14 hydrophobe
5 2 9 10 11 12 rings
6 11 12 15 16 17 18 rings

>  <PUBCHEM_HEAVY_ATOM_COUNT>  (1) 
25

>  <PUBCHEM_ATOM_DEF_STEREO_COUNT>  (1) 
0

>  <PUBCHEM_ATOM_UDEF_STEREO_COUNT>  (1) 
0

>  <PUBCHEM_BOND_DEF_STEREO_COUNT>  (1) 
0

>  <PUBCHEM_BOND_UDEF_STEREO_COUNT>  (1) 
0

>  <PUBCHEM_ISOTOPIC_ATOM_COUNT>  (1) 
0

>  <PUBCHEM_COMPONENT_COUNT>  (1) 
1

>  <PUBCHEM_CACTVS_TAUTO_COUNT>  (1) 
1

>  <PUBCHEM_CONFORMER_ID>  (1) 
0000BA8E00000003

>  <PUBCHEM_MMFF94_ENERGY>  (1) 
70.7236

>  <PUBCHEM_FEATURE_SELFOVERLAP>  (1) 
35.622

>  <PUBCHEM_SHAPE_FINGERPRINT>  (1) 
10090160 65 18341327804319281951
10366900 7 17168151070176189642
10498660 4 17916875745145434492
10763959 59 18114457851718784221
11045977 3 17749396965961621659
12166972 35 18271805679477765696
12236239 1 18342735208971856507
12403259 118 18267294349051855889
12403260 363 18337670806932702585
12616971 3 18342173350214279095
12633257 1 17240754121266752984
12788726 201 17632589235983793105
13533116 47 18407760343702561609
13583140 156 18187093840349317395
13878862 14 18042664213554382733
14117953 113 17982732970056239557
14251764 38 18263646173898309277
14341114 176 18260553303106718563
14787075 74 18343017796888487323
15342168 16 17895480352780958646
15849732 13 18201153261859726486
17349148 13 18201999880800371203
18681886 176 18272645732400416954
20157964 124 18333166163718047179
20715895 44 17907857302236817505
21033648 144 18262789774145065053
21033648 29 16878211005383742645
21033650 10 16199614401345879170
21503847 285 18260267447785527386
22149856 69 17489602147550269331
23227448 37 18337111262956912167
23559900 14 18335138682840549875
23598288 3 17986386904598153567
34797466 226 14764338367415265635
351380 180 18261672584700813257
3680242 22 18343309136956580233
38570 142 18117299106198547092
397830 11 17313682554589658001
4325135 7 18343016675944091103
4409770 3 15602600126003050966
474 4 18186802521534059858
513532 50 17988653978100948740

>  <PUBCHEM_SHAPE_MULTIPOLES>  (1) 
479.03
13.77
3.05
1.38
18.14
1.22
0.49
2.54
-0.62
-3.57
0.3
0.29
-0.09
-2.19

>  <PUBCHEM_SHAPE_SELFOVERLAP>  (1) 
978.708

>  <PUBCHEM_SHAPE_VOLUME>  (1) 
283.2

>  <PUBCHEM_COORDINATE_TYPE>  (1) 
2
5
10

$$$$
