47757
     RDKit          3D

 25 26  0  0  0  0  0  0  0  0999 V2000
    2.8416   -0.8109   -1.5110 S   0  0  0  0  0  0  0  0  0  0  0  0
   -2.0690    0.1673   -0.9962 O   0  0  0  0  0  0  0  0  0  0  0  0
    0.4313   -0.7042    0.0923 O   0  0  0  0  0  0  0  0  0  0  0  0
   -0.1875   -2.9039   -0.2748 O   0  0  0  0  0  0  0  0  0  0  0  0
    2.5231    1.7361   -0.2751 O   0  0  0  0  0  0  0  0  0  0  0  0
    3.5939    1.2557    1.6870 O   0  0  0  0  0  0  0  0  0  0  0  0
    1.7602   -2.1174   -1.2649 N   0  0  0  0  0  0  0  0  0  0  0  0
    3.4084   -0.3777    0.0480 N   0  0  0  0  0  0  0  0  0  0  0  0
   -3.5048    0.3757   -1.1312 C   0  0  0  0  0  0  0  0  0  0  0  0
   -4.1152    0.5648    0.2772 C   0  0  0  0  0  0  0  0  0  0  0  0
   -3.0012    0.0602    1.1112 C   0  0  0  0  0  0  0  0  0  0  0  0
   -1.8732   -0.1197    0.3290 C   0  0  0  0  0  0  0  0  0  0  0  0
   -3.7112    1.6210   -1.9947 C   0  0  0  0  0  0  0  0  0  0  0  0
   -4.0885   -0.8535   -1.8393 C   0  0  0  0  0  0  0  0  0  0  0  0
   -2.9654   -0.1791    2.4734 C   0  0  0  0  0  0  0  0  0  0  0  0
   -0.6715   -0.5414    0.8652 C   0  0  0  0  0  0  0  0  0  0  0  0
   -1.7634   -0.6149    3.0367 C   0  0  0  0  0  0  0  0  0  0  0  0
   -0.6229   -0.7942    2.2373 C   0  0  0  0  0  0  0  0  0  0  0  0
    0.6126   -1.9903   -0.4755 C   0  0  0  0  0  0  0  0  0  0  0  0
    2.1062   -3.3670   -1.9259 C   0  0  0  0  0  0  0  0  0  0  0  0
    1.5197    3.8384   -0.8630 C   0  0  0  0  0  0  0  0  0  0  0  0
    2.2802    3.0641    0.2025 C   0  0  0  0  0  0  0  0  0  0  0  0
    0.1799    3.1981   -1.1783 C   0  0  0  0  0  0  0  0  0  0  0  0
    3.2050    0.9021    0.5746 C   0  0  0  0  0  0  0  0  0  0  0  0
    4.1118   -1.4092    0.7957 C   0  0  0  0  0  0  0  0  0  0  0  0
  1  7  1  0
  1  8  1  0
  2  9  1  0
  2 12  1  0
  3 16  1  0
  3 19  1  0
  4 19  2  0
  5 22  1  0
  5 24  1  0
  6 24  2  0
  7 19  1  0
  7 20  1  0
  8 24  1  0
  8 25  1  0
  9 10  1  0
  9 13  1  0
  9 14  1  0
 10 11  1  0
 11 12  2  0
 11 15  1  0
 12 16  1  0
 15 17  2  0
 16 18  2  0
 17 18  1  0
 21 22  1  0
 21 23  1  0
M  END
>  <PUBCHEM_COMPOUND_CID>  (1) 
47757

>  <PUBCHEM_CONFORMER_RMSD>  (1) 
1

>  <PUBCHEM_CONFORMER_DIVERSEORDER>  (1) 
3
286
83
282
298
27
232
319
57
74
84
51
195
290
46
175
291
223
297
197
69
211
134
130
86
267
152
92
274
279
52
205
159
142
154
323
19
150
135
235
262
194
133
32
136
72
4
186
288
178
224
30
254
169
158
109
77
107
71
217
39
320
75
312
225
230
219
103
276
317
90
177
176
318
184
66
259
73
199
271
280
285
234
229
18
216
307
49
13
115
247
215
59
243
299
144
67
181
204
55
140
121
257
196
110
256
38
164
210
207
165
188
266
96
191
41
277
151
185
56
304
82
102
37
270
228
48
170
246
145
54
251
269
138
250
15
8
183
36
226
275
187
203
189
258
120
157
105
311
143
233
112
40
162
88
156
146
242
294
321
192
5
161
25
293
131
316
126
238
218
241
220
106
129
125
248
315
302
284
174
137
22
240
100
322
101
268
29
65
97
68
252
198
200
99
253
255
132
6
34
47
113
31
212
118
171
122
292
128
12
206
201
160
190
308
281
264
168
23
17
62
14
310
63
283
44
42
289
222
119
261
81
111
78
287
9
85
263
193
213
16
208
45
221
155
202
303
301
91
236
60
26
209
104
139
179
35
163
272
53
24
295
296
249
227
237
10
231
28
70
76
244
172
124
149
306
79
245
123
214
309
114
50
273
127
141
278
11
64
87
148
239
167
305
153
313
89
173
7
147
314
2
20
1
80
58
117
260
182
33
61
265
93
300
95
180
94
43
98
21
166
108
116

>  <PUBCHEM_MMFF94_PARTIAL_CHARGES>  (1) 
24
1 0.02
10 0.14
11 -0.14
12 0.08
15 -0.15
16 0.08
17 -0.15
18 -0.15
19 0.78
2 -0.36
20 0.3
22 0.28
24 0.78
25 0.3
3 -0.23
34 0.15
35 0.15
36 0.15
4 -0.57
5 -0.43
6 -0.57
7 -0.37
8 -0.37
9 0.28

>  <PUBCHEM_EFFECTIVE_ROTOR_COUNT>  (1) 
9.6

>  <PUBCHEM_PHARMACOPHORE_FEATURES>  (1) 
7
1 2 acceptor
1 23 hydrophobe
1 4 acceptor
1 6 acceptor
3 9 13 14 hydrophobe
5 2 9 10 11 12 rings
6 11 12 15 16 17 18 rings

>  <PUBCHEM_HEAVY_ATOM_COUNT>  (1) 
25

>  <PUBCHEM_ATOM_DEF_STEREO_COUNT>  (1) 
0

>  <PUBCHEM_ATOM_UDEF_STEREO_COUNT>  (1) 
0

>  <PUBCHEM_BOND_DEF_STEREO_COUNT>  (1) 
0

>  <PUBCHEM_BOND_UDEF_STEREO_COUNT>  (1) 
0

>  <PUBCHEM_ISOTOPIC_ATOM_COUNT>  (1) 
0

>  <PUBCHEM_COMPONENT_COUNT>  (1) 
1

>  <PUBCHEM_CACTVS_TAUTO_COUNT>  (1) 
1

>  <PUBCHEM_CONFORMER_ID>  (1) 
0000BA8D00000003

>  <PUBCHEM_MMFF94_ENERGY>  (1) 
62.9847

>  <PUBCHEM_FEATURE_SELFOVERLAP>  (1) 
35.622

>  <PUBCHEM_SHAPE_FINGERPRINT>  (1) 
11244481 83 17315378039610313392
11582403 64 17461123713383684279
11640471 11 17346055423157871329
11725454 13 17677872639505838263
12156800 1 15315380750993299100
12403259 327 17386274480665456600
12596599 1 17775573017592684903
13134695 92 18334293133229787694
13402501 40 18187917340024950204
13583140 156 18040717012605461018
14251764 3 18040714779433132027
17349148 13 18060697277949969786
17357779 13 18268159651876042356
18219364 16 18337965578827351320
19319366 153 17559936853431761319
19930381 70 18340200907832256061
20600515 1 17096095671140811662
20681677 76 18041842946797681987
22907989 373 17553772054541819167
238 59 18338793536810945381
3493558 16 17541353070717393415
474 4 18130796671785103106
621550 5 17031691828914939747
7097593 13 13767932329351751706
81228 2 17829058614982407172

>  <PUBCHEM_SHAPE_MULTIPOLES>  (1) 
479.03
7.56
3.67
2.52
1.34
2.51
-1.04
0.35
0.85
-3.74
2.03
1.78
-0.89
1.64

>  <PUBCHEM_SHAPE_SELFOVERLAP>  (1) 
976.233

>  <PUBCHEM_SHAPE_VOLUME>  (1) 
282.9

>  <PUBCHEM_COORDINATE_TYPE>  (1) 
2
5
10

$$$$
