47773
     RDKit          3D

 22 24  0  0  0  0  0  0  0  0999 V2000
   -0.2422   -1.6028   -0.9244 O   0  0  0  0  0  0  0  0  0  0  0  0
    1.8078    2.3296    0.1258 O   0  0  0  0  0  0  0  0  0  0  0  0
   -0.3511    2.6527   -0.6049 O   0  0  0  0  0  0  0  0  0  0  0  0
    4.9090   -1.5730    0.8831 O   0  0  0  0  0  0  0  0  0  0  0  0
   -2.8298    0.1276   -0.2450 N   0  0  0  0  0  0  0  0  0  0  0  0
   -2.9163   -1.1925    0.3950 C   0  0  0  0  0  0  0  0  0  0  0  0
   -4.1486    0.5800   -0.7099 C   0  0  0  0  0  0  0  0  0  0  0  0
   -3.8702   -1.1649    1.5904 C   0  0  0  0  0  0  0  0  0  0  0  0
   -5.1428    0.6655    0.4491 C   0  0  0  0  0  0  0  0  0  0  0  0
   -5.2521   -0.6649    1.1854 C   0  0  0  0  0  0  0  0  0  0  0  0
   -1.8789    0.0962   -1.3558 C   0  0  0  0  0  0  0  0  0  0  0  0
   -0.4983   -0.2819   -0.9031 C   0  0  0  0  0  0  0  0  0  0  0  0
    0.5561    0.4517   -0.4719 C   0  0  0  0  0  0  0  0  0  0  0  0
    1.5818   -0.4891   -0.1915 C   0  0  0  0  0  0  0  0  0  0  0  0
    1.0412   -1.7367   -0.4858 C   0  0  0  0  0  0  0  0  0  0  0  0
    2.9056   -0.4245    0.2773 C   0  0  0  0  0  0  0  0  0  0  0  0
    0.5937    1.8791   -0.3388 C   0  0  0  0  0  0  0  0  0  0  0  0
    1.7304   -2.9398   -0.3454 C   0  0  0  0  0  0  0  0  0  0  0  0
    3.6243   -1.6182    0.4290 C   0  0  0  0  0  0  0  0  0  0  0  0
    3.0448   -2.8522    0.1227 C   0  0  0  0  0  0  0  0  0  0  0  0
    1.9693    3.7411    0.3023 C   0  0  0  0  0  0  0  0  0  0  0  0
    3.3663    4.0170    0.8163 C   0  0  0  0  0  0  0  0  0  0  0  0
  1 12  1  0
  1 15  1  0
  2 17  1  0
  2 21  1  0
  3 17  2  0
  4 19  1  0
  5  6  1  0
  5  7  1  0
  5 11  1  0
  6  8  1  0
  7  9  1  0
  8 10  1  0
  9 10  1  0
 11 12  1  0
 12 13  2  0
 13 14  1  0
 13 17  1  0
 14 15  2  0
 14 16  1  0
 15 18  1  0
 16 19  2  0
 18 20  2  0
 19 20  1  0
 21 22  1  0
M  END
>  <PUBCHEM_COMPOUND_CID>  (1) 
47773

>  <PUBCHEM_CONFORMER_RMSD>  (1) 
0.8

>  <PUBCHEM_CONFORMER_DIVERSEORDER>  (1) 
1
42
22
54
24
2
27
8
52
15
12
37
31
48
14
41
21
38
39
50
36
17
20
47
26
49
23
43
29
44
3
19
32
30
25
6
53
10
16
51
7
33
13
11
46
5
35
34
28
4
40
45
9
18

>  <PUBCHEM_MMFF94_PARTIAL_CHARGES>  (1) 
21
1 -0.28
11 0.45
12 -0.04
13 -0.09
15 0.14
16 -0.15
17 0.81
18 -0.15
19 0.08
2 -0.43
20 -0.15
21 0.28
3 -0.57
35 0.15
36 0.15
37 0.15
4 -0.53
40 0.45
5 -0.81
6 0.27
7 0.27

>  <PUBCHEM_EFFECTIVE_ROTOR_COUNT>  (1) 
6.2

>  <PUBCHEM_PHARMACOPHORE_FEATURES>  (1) 
7
1 1 acceptor
1 3 acceptor
1 4 donor
1 5 cation
5 1 12 13 14 15 rings
6 14 15 16 18 19 20 rings
6 5 6 7 8 9 10 rings

>  <PUBCHEM_HEAVY_ATOM_COUNT>  (1) 
22

>  <PUBCHEM_ATOM_DEF_STEREO_COUNT>  (1) 
0

>  <PUBCHEM_ATOM_UDEF_STEREO_COUNT>  (1) 
0

>  <PUBCHEM_BOND_DEF_STEREO_COUNT>  (1) 
0

>  <PUBCHEM_BOND_UDEF_STEREO_COUNT>  (1) 
0

>  <PUBCHEM_ISOTOPIC_ATOM_COUNT>  (1) 
0

>  <PUBCHEM_COMPONENT_COUNT>  (1) 
1

>  <PUBCHEM_CACTVS_TAUTO_COUNT>  (1) 
3

>  <PUBCHEM_CONFORMER_ID>  (1) 
0000BA9D00000001

>  <PUBCHEM_MMFF94_ENERGY>  (1) 
29.0776

>  <PUBCHEM_FEATURE_SELFOVERLAP>  (1) 
35.626

>  <PUBCHEM_SHAPE_FINGERPRINT>  (1) 
10493431 412 17907858753629600376
1100329 8 18341045345915905600
11036077 3 18122911095045929876
11796584 16 16878503410968338659
12390115 104 17693106570482497844
12422481 6 18119780699600400248
12553582 1 18340482270923545790
12633257 1 18337408071278268739
12644460 14 18337956787156189344
12788726 201 17615119984371175155
13134695 92 18339077090730974111
13140716 1 18339075020567507470
13533116 47 18335432296418010659
13899415 154 18339938047380507894
14022349 108 18339640156643445124
14252887 29 18199472069119419694
14787075 74 18040440992585414266
14790565 3 17976263757318964452
14955137 171 18412553085208375206
15042514 8 17762054342162512500
15081414 286 18270966739273929606
15238133 3 18193291697575206629
15475509 35 17312814970478610587
15475509 8 17701847447948058740
15475509 84 18198917924286903041
15664445 248 18129680612217899094
15927050 60 17980483679019692230
17980427 23 17702106868193987713
1813 80 18059305236167858574
18785283 64 18335421330601580148
19591789 44 18048879894794375284
20600515 1 17972892362403861277
20642791 268 18060141994528365761
20739085 24 18262240027006098476
21033648 29 17559374869792648971
21041028 32 18339924809674597284
21065199 12 18261961855465295833
21524375 3 17553208005288078789
22182313 1 17912920583252019350
23175994 123 18338235938792859351
23419403 2 18042666382407515012
23558518 356 17619912094553498870
23559900 14 17894634760110254533
25147074 1 17845361323301045871
3091708 16 9215157057603850956
3421961 26 18408045117229791593
3472631 163 14836119915230918187
5104073 3 18337688502846666411
58807428 26 18051121790355901864
69474 34 18410851036391078746
79837 15 17545312446838480064
81228 2 17689451385729996247

>  <PUBCHEM_SHAPE_MULTIPOLES>  (1) 
424.29
9.21
4.15
1.11
9.25
3.87
-0.09
-1.5
-4.03
-6.82
-0.68
0.81
-0.1
0.88

>  <PUBCHEM_SHAPE_SELFOVERLAP>  (1) 
907.425

>  <PUBCHEM_SHAPE_VOLUME>  (1) 
237.5

>  <PUBCHEM_COORDINATE_TYPE>  (1) 
2
5
10

$$$$
