47783
     RDKit          3D

 16 18  0  0  0  0  0  0  0  0999 V2000
   -4.7095   -0.5663   -0.6198 O   0  0  0  0  0  0  0  0  0  0  0  0
   -0.7152    3.0327    0.0349 O   0  0  0  0  0  0  0  0  0  0  0  0
   -0.8017    0.7474    0.0746 N   0  0  0  0  0  0  0  0  0  0  0  0
   -2.1681    0.6128    0.1046 N   0  0  0  0  0  0  0  0  0  0  0  0
    1.2513    1.8570   -0.0184 N   0  0  0  0  0  0  0  0  0  0  0  0
   -0.2326   -0.5003    0.0609 C   0  0  0  0  0  0  0  0  0  0  0  0
    1.0939   -0.6402    0.0117 C   0  0  0  0  0  0  0  0  0  0  0  0
   -2.4637   -0.7382    0.1631 C   0  0  0  0  0  0  0  0  0  0  0  0
   -1.3226   -1.4561    0.1178 C   0  0  0  0  0  0  0  0  0  0  0  0
    1.8178    0.6834   -0.0280 C   0  0  0  0  0  0  0  0  0  0  0  0
   -0.1335    1.9486    0.0307 C   0  0  0  0  0  0  0  0  0  0  0  0
    1.8409   -1.8740   -0.0043 C   0  0  0  0  0  0  0  0  0  0  0  0
   -3.8546   -1.2315    0.3006 C   0  0  0  0  0  0  0  0  0  0  0  0
    3.3070    0.5870   -0.0817 C   0  0  0  0  0  0  0  0  0  0  0  0
    3.1796   -1.8534   -0.0541 C   0  0  0  0  0  0  0  0  0  0  0  0
    3.9110   -0.6091   -0.0925 C   0  0  0  0  0  0  0  0  0  0  0  0
  1 13  1  0
  2 11  2  0
  3  4  1  0
  3  6  1  0
  3 11  1  0
  4  8  1  0
  5 10  2  0
  5 11  1  0
  6  7  2  0
  6  9  1  0
  7 10  1  0
  7 12  1  0
  8  9  2  0
  8 13  1  0
 10 14  1  0
 12 15  2  0
 14 16  2  0
 15 16  1  0
M  END
>  <PUBCHEM_COMPOUND_CID>  (1) 
47783

>  <PUBCHEM_CONFORMER_RMSD>  (1) 
0.6

>  <PUBCHEM_CONFORMER_DIVERSEORDER>  (1) 
1

>  <PUBCHEM_MMFF94_PARTIAL_CHARGES>  (1) 
23
1 -0.68
10 0.42
11 0.84
12 -0.15
13 0.42
14 -0.14
15 -0.15
16 -0.15
17 0.15
18 0.4
19 0.15
2 -0.57
22 0.15
23 0.15
24 0.15
25 0.4
3 -0.15
4 -0.52
5 -0.66
6 0.11
7 0.01
8 -0.04
9 -0.15

>  <PUBCHEM_EFFECTIVE_ROTOR_COUNT>  (1) 
1

>  <PUBCHEM_PHARMACOPHORE_FEATURES>  (1) 
9
1 1 acceptor
1 1 donor
1 2 acceptor
1 4 donor
1 5 acceptor
1 5 donor
5 3 4 6 8 9 rings
6 3 5 6 7 10 11 rings
6 7 10 12 14 15 16 rings

>  <PUBCHEM_HEAVY_ATOM_COUNT>  (1) 
16

>  <PUBCHEM_ATOM_DEF_STEREO_COUNT>  (1) 
0

>  <PUBCHEM_ATOM_UDEF_STEREO_COUNT>  (1) 
0

>  <PUBCHEM_BOND_DEF_STEREO_COUNT>  (1) 
0

>  <PUBCHEM_BOND_UDEF_STEREO_COUNT>  (1) 
0

>  <PUBCHEM_ISOTOPIC_ATOM_COUNT>  (1) 
0

>  <PUBCHEM_COMPONENT_COUNT>  (1) 
1

>  <PUBCHEM_CACTVS_TAUTO_COUNT>  (1) 
3

>  <PUBCHEM_CONFORMER_ID>  (1) 
0000BAA700000001

>  <PUBCHEM_MMFF94_ENERGY>  (1) 
56.931

>  <PUBCHEM_FEATURE_SELFOVERLAP>  (1) 
45.869

>  <PUBCHEM_SHAPE_FINGERPRINT>  (1) 
10618630 7 18409168800870153870
10967382 1 18338518663451987618
11471102 20 18410008879172102007
11543360 7 15647347380172811794
11578080 2 17559931308570680289
116883 192 18268995288944221711
11806522 49 18338797917793729031
12032990 46 18409736170271251627
13140716 1 18123181574858182338
13583140 156 14332841518130983083
14115302 16 17822020838373452262
14178342 30 18048302354942694178
14251717 144 18411418453068601655
14252887 29 18130519590555018702
14576447 43 18128244787102302839
15196674 1 18410857625129308586
15536298 74 18272089435045206266
15848700 24 18412256259480101607
16945 1 18410578370751020688
17357779 13 18335123290046655853
193761 8 17905891374955152274
200 152 18130783473698853015
20201158 50 18335140916223348354
20510252 161 18271243811945903544
20645477 70 18337951294072508703
20871998 184 18129941157175534078
20871998 22 18270973349049302118
21029758 11 18411978074844043401
21267235 1 18411147930459053230
21296965 67 18411981347155396785
21501502 16 18265902350224886600
21501925 9 18411132537348706762
221357 26 18336809945869656685
221490 88 18047475805461096235
2334 1 18266180530850930880
23402539 116 18343293756404659391
23419403 2 17630296741122811033
23463225 33 18410859871239026830
23557571 272 18200601293731187462
23559900 14 18195519286848278042
2748010 2 18195246611937348876
2871803 45 18335984194766438374
3091708 16 8994217883740880008
34934 24 18339917229247080862
5104073 3 18411983520709724802
537710 114 18336553801728991716
54173680 148 17978511932137267586
7364860 26 18197497539519531000
81228 2 18263092019546909984
8809292 202 18187370981646159794

>  <PUBCHEM_SHAPE_MULTIPOLES>  (1) 
302.59
6.59
2.41
0.62
3.23
1.41
0
-3.16
0.54
-0.29
-0.05
0.08
-0.05
0.03

>  <PUBCHEM_SHAPE_SELFOVERLAP>  (1) 
672.93

>  <PUBCHEM_SHAPE_VOLUME>  (1) 
160.3

>  <PUBCHEM_COORDINATE_TYPE>  (1) 
2
5
10

$$$$
