47788
     RDKit          3D

 26 28  0  0  0  0  0  0  0  0999 V2000
   -2.3726    0.9708   -0.6495 O   0  0  0  0  0  0  0  0  0  0  0  0
   -8.6242    1.0093    0.3582 O   0  0  0  0  0  0  0  0  0  0  0  0
    2.1420   -0.5705    0.2109 N   0  0  0  0  0  0  0  0  0  0  0  0
    4.9711   -0.2145    0.0415 N   0  0  0  0  0  0  0  0  0  0  0  0
    3.0408   -1.7300    0.2689 C   0  0  0  0  0  0  0  0  0  0  0  0
    2.7103    0.4582   -0.6687 C   0  0  0  0  0  0  0  0  0  0  0  0
    4.4147   -1.3327    0.8135 C   0  0  0  0  0  0  0  0  0  0  0  0
    4.0741    0.9282   -0.1564 C   0  0  0  0  0  0  0  0  0  0  0  0
    0.8166   -0.9720   -0.2590 C   0  0  0  0  0  0  0  0  0  0  0  0
   -0.1355    0.2195   -0.2396 C   0  0  0  0  0  0  0  0  0  0  0  0
    6.3551   -0.0115    0.0823 C   0  0  0  0  0  0  0  0  0  0  0  0
   -1.5316   -0.1733   -0.7036 C   0  0  0  0  0  0  0  0  0  0  0  0
    7.2486   -1.0125   -0.3483 C   0  0  0  0  0  0  0  0  0  0  0  0
    6.8970    1.2000    0.5562 C   0  0  0  0  0  0  0  0  0  0  0  0
    8.6281   -0.8103   -0.3067 C   0  0  0  0  0  0  0  0  0  0  0  0
    8.2765    1.4022    0.5977 C   0  0  0  0  0  0  0  0  0  0  0  0
    9.1419    0.3971    0.1663 C   0  0  0  0  0  0  0  0  0  0  0  0
   -3.7059    0.7482   -0.4225 C   0  0  0  0  0  0  0  0  0  0  0  0
   -4.2902   -0.4344   -0.8607 C   0  0  0  0  0  0  0  0  0  0  0  0
   -4.4599    1.7085    0.2418 C   0  0  0  0  0  0  0  0  0  0  0  0
   -5.6477   -0.6600   -0.6313 C   0  0  0  0  0  0  0  0  0  0  0  0
   -5.8171    1.4831    0.4713 C   0  0  0  0  0  0  0  0  0  0  0  0
   -6.4109    0.2987    0.0347 C   0  0  0  0  0  0  0  0  0  0  0  0
   -7.8263    0.0632    0.2729 C   0  0  0  0  0  0  0  0  0  0  0  0
   -8.3036   -1.3485    0.4459 C   0  0  0  0  0  0  0  0  0  0  0  0
   -9.5912   -1.6169    0.6845 C   0  0  0  0  0  0  0  0  0  0  0  0
  1 12  1  0
  1 18  1  0
  2 24  2  0
  3  5  1  0
  3  6  1  0
  3  9  1  0
  4  7  1  0
  4  8  1  0
  4 11  1  0
  5  7  1  0
  6  8  1  0
  9 10  1  0
 10 12  1  0
 11 13  2  0
 11 14  1  0
 13 15  1  0
 14 16  2  0
 15 17  2  0
 16 17  1  0
 18 19  2  0
 18 20  1  0
 19 21  1  0
 20 22  2  0
 21 23  2  0
 22 23  1  0
 23 24  1  0
 24 25  1  0
 25 26  2  0
M  END
>  <PUBCHEM_COMPOUND_CID>  (1) 
47788

>  <PUBCHEM_CONFORMER_RMSD>  (1) 
1

>  <PUBCHEM_CONFORMER_DIVERSEORDER>  (1) 
1
15
38
86
79
55
69
95
62
23
60
30
9
44
37
96
57
90
35
50
75
87
103
99
42
63
104
17
83
24
16
88
18
8
39
81
47
29
73
59
52
32
40
77
67
78
22
97
45
80
56
65
74
25
94
64
27
72
54
33
46
3
93
28
49
48
92
89
61
100
31
2
36
19
76
98
11
26
34
5
102
68
101
91
71
51
70
43
21
12
105
14
10
41
6
53
58
20
4
85
66
7
13
84
82

>  <PUBCHEM_MMFF94_PARTIAL_CHARGES>  (1) 
37
1 -0.36
11 0.1
12 0.28
13 -0.15
14 -0.15
15 -0.15
16 -0.15
17 -0.15
18 0.08
19 -0.15
2 -0.57
20 -0.15
21 -0.15
22 -0.15
23 0.09
24 0.47
25 -0.14
26 -0.3
3 -0.81
4 -0.84
41 0.15
42 0.15
43 0.15
44 0.15
45 0.15
46 0.15
47 0.15
48 0.15
49 0.15
5 0.27
50 0.15
51 0.15
52 0.15
6 0.27
7 0.37
8 0.37
9 0.27

>  <PUBCHEM_EFFECTIVE_ROTOR_COUNT>  (1) 
9.2

>  <PUBCHEM_PHARMACOPHORE_FEATURES>  (1) 
8
1 1 acceptor
1 2 acceptor
1 26 hydrophobe
1 3 cation
1 4 cation
6 11 13 14 15 16 17 rings
6 18 19 20 21 22 23 rings
6 3 4 5 6 7 8 rings

>  <PUBCHEM_HEAVY_ATOM_COUNT>  (1) 
26

>  <PUBCHEM_ATOM_DEF_STEREO_COUNT>  (1) 
0

>  <PUBCHEM_ATOM_UDEF_STEREO_COUNT>  (1) 
0

>  <PUBCHEM_BOND_DEF_STEREO_COUNT>  (1) 
0

>  <PUBCHEM_BOND_UDEF_STEREO_COUNT>  (1) 
0

>  <PUBCHEM_ISOTOPIC_ATOM_COUNT>  (1) 
0

>  <PUBCHEM_COMPONENT_COUNT>  (1) 
1

>  <PUBCHEM_CACTVS_TAUTO_COUNT>  (1) 
1

>  <PUBCHEM_CONFORMER_ID>  (1) 
0000BAAC00000001

>  <PUBCHEM_MMFF94_ENERGY>  (1) 
88.2671

>  <PUBCHEM_FEATURE_SELFOVERLAP>  (1) 
40.599

>  <PUBCHEM_SHAPE_FINGERPRINT>  (1) 
10 15 18131069333979506831
10162869 55 17168145667070667694
10299344 5 18342737407673319687
106641 1 18409167727465829495
11135609 99 17968667146163218275
11315181 36 18413107239622545225
11638347 137 17022896827610639890
11719270 70 12107786294553344656
11724838 91 18186521007712784966
12089408 11 18343019978119742479
12643181 29 15502381149687383753
12664476 115 16128655241516120777
14123256 10 18333449837279981660
14150022 121 18336264536252377453
14202775 3 18334862693075717746
14251764 18 18334574637664731511
14251764 46 18410575084663078919
14671636 106 18339079393535681451
14849402 71 18339641243645386568
14918687 75 18059570356764148479
14933364 13 18202561774592803180
15065858 18 12107787423554294748
15183329 4 10159700196551122165
15247644 1 16081088181917118331
15347591 1 18046340838445151299
15461852 350 14923943470850136507
15510794 2 18412548695256127847
15728490 51 18408602587280060527
15840311 113 18334016121225810252
16120349 18 16950288438313564916
18335252 98 18272373061552963183
21095086 128 18186519891216622634
21095123 145 16702300192212802311
21130935 74 18262235491573277675
21360443 89 18339077207734924947
21795232 338 17916579985809773743
22224240 67 17749107790493521434
232437 2 18334295357912363130
28498 318 9295291642605430632
335507 130 18201719569749222711
4073 2 18334296504916947474
4325135 7 18409448081208110781
5283156 175 15841555159318122502
5758199 1 18334856108773944250
59682541 35 18335702767018219131
67123 10 18410575093253013522
9663363 56 17240481408830518869
9953998 17 18408042914523270883
9962374 69 17023186084261073183

>  <PUBCHEM_SHAPE_MULTIPOLES>  (1) 
513.37
36
1.59
0.82
6.92
0.02
-0.01
1.86
6.45
0.68
0.26
0.21
0.04
0.56

>  <PUBCHEM_SHAPE_SELFOVERLAP>  (1) 
1077.952

>  <PUBCHEM_SHAPE_VOLUME>  (1) 
289.2

>  <PUBCHEM_COORDINATE_TYPE>  (1) 
2
5
10

$$$$
