4779
     RDKit          3D

 23 24  0  0  1  0  0  0  0  0999 V2000
    2.3049   -2.3000   -0.0629 P   0  0  0  0  0  0  0  0  0  0  0  0
    1.6831   -3.6675    0.5144 O   0  0  0  0  0  0  0  0  0  0  0  0
    3.8338   -2.3236    0.4389 O   0  0  0  0  0  0  0  0  0  0  0  0
    2.0908   -2.0384   -1.5114 O   0  0  0  0  0  0  0  0  0  0  0  0
   -2.3099   -0.9953    1.8132 O   0  0  0  0  0  0  0  0  0  0  0  0
   -3.9875    0.3349    2.5629 O   0  0  0  0  0  0  0  0  0  0  0  0
   -5.4133   -0.2520    0.2927 N   0  0  0  0  0  0  0  0  0  0  0  0
    1.4962    1.1941   -0.1319 C   0  0  0  0  0  0  0  0  0  0  0  0
    0.3429    0.7869   -0.9051 C   0  0  0  0  0  0  0  0  0  0  0  0
   -2.0356    0.6135   -1.1636 C   0  0  0  0  0  0  0  0  0  0  0  0
    2.0905    0.3293    0.7890 C   0  0  0  0  0  0  0  0  0  0  0  0
   -3.4286    0.8552   -0.6296 C   0  0  0  0  0  0  0  0  0  0  0  0
   -0.9424    1.0106   -0.4115 C   0  0  0  0  0  0  0  0  0  0  0  0
    1.5623   -1.0512    1.0152 C   0  0  0  0  0  0  0  0  0  0  0  0
   -3.9555   -0.3150    0.2156 C   0  0  0  0  0  0  0  0  0  0  0  0
    0.5167    0.1691   -2.1437 C   0  0  0  0  0  0  0  0  0  0  0  0
   -1.8800   -0.0009   -2.3952 C   0  0  0  0  0  0  0  0  0  0  0  0
    2.0171    2.4760   -0.3170 C   0  0  0  0  0  0  0  0  0  0  0  0
    3.2021    0.7452    1.5221 C   0  0  0  0  0  0  0  0  0  0  0  0
   -0.5946   -0.2248   -2.8886 C   0  0  0  0  0  0  0  0  0  0  0  0
    3.1285    2.8918    0.4162 C   0  0  0  0  0  0  0  0  0  0  0  0
    3.7209    2.0264    1.3358 C   0  0  0  0  0  0  0  0  0  0  0  0
   -3.4424   -0.2642    1.6446 C   0  0  0  0  0  0  0  0  0  0  0  0
  1  2  1  0
  1  3  1  0
  1  4  2  0
  1 14  1  0
  5 23  1  0
  6 23  2  0
  7 15  1  0
  8  9  1  0
  8 11  2  0
  8 18  1  0
  9 13  1  0
  9 16  2  0
 10 12  1  0
 10 13  2  0
 10 17  1  0
 11 14  1  0
 11 19  1  0
 12 15  1  0
 15 23  1  0
 16 20  1  0
 17 20  2  0
 18 21  2  0
 19 22  2  0
 21 22  1  0
M  END
>  <PUBCHEM_COMPOUND_CID>  (1) 
4779

>  <PUBCHEM_CONFORMER_RMSD>  (1) 
0.8

>  <PUBCHEM_CONFORMER_DIVERSEORDER>  (1) 
1
6
59
9
15
40
70
75
54
68
26
48
5
34
71
62
52
42
17
13
7
53
67
3
76
8
49
16
20
47
38
37
61
35
28
41
45
66
10
30
29
55
22
72
18
12
39
19
58
51
69
31
74
33
2
4
50
64
73
32
57
65
36
11
25
27
60
21
56
44
63
23
14
46
24
43

>  <PUBCHEM_MMFF94_PARTIAL_CHARGES>  (1) 
34
1 1.24
10 -0.14
11 -0.14
12 0.14
13 -0.15
14 0.14
15 0.33
16 -0.15
17 -0.15
18 -0.15
19 -0.15
2 -0.77
20 -0.15
21 -0.15
22 -0.15
23 0.66
26 0.15
3 -0.77
30 0.15
31 0.15
32 0.15
33 0.15
34 0.15
35 0.15
36 0.15
37 0.36
38 0.36
39 0.5
4 -0.7
40 0.5
41 0.5
5 -0.65
6 -0.57
7 -0.99

>  <PUBCHEM_EFFECTIVE_ROTOR_COUNT>  (1) 
6

>  <PUBCHEM_PHARMACOPHORE_FEATURES>  (1) 
11
1 2 acceptor
1 3 acceptor
1 4 acceptor
1 5 acceptor
1 6 acceptor
1 7 cation
1 7 donor
3 5 6 23 anion
4 1 2 3 4 anion
6 8 11 18 19 21 22 rings
6 9 10 13 16 17 20 rings

>  <PUBCHEM_HEAVY_ATOM_COUNT>  (1) 
23

>  <PUBCHEM_ATOM_DEF_STEREO_COUNT>  (1) 
0

>  <PUBCHEM_ATOM_UDEF_STEREO_COUNT>  (1) 
1

>  <PUBCHEM_BOND_DEF_STEREO_COUNT>  (1) 
0

>  <PUBCHEM_BOND_UDEF_STEREO_COUNT>  (1) 
0

>  <PUBCHEM_ISOTOPIC_ATOM_COUNT>  (1) 
0

>  <PUBCHEM_COMPONENT_COUNT>  (1) 
1

>  <PUBCHEM_CACTVS_TAUTO_COUNT>  (1) 
1

>  <PUBCHEM_CONFORMER_ID>  (1) 
000012AB00000001

>  <PUBCHEM_MMFF94_ENERGY>  (1) 
28.1549

>  <PUBCHEM_FEATURE_SELFOVERLAP>  (1) 
55.916

>  <PUBCHEM_SHAPE_FINGERPRINT>  (1) 
10382601 240 18131639997256699196
10498660 4 15554181319556515793
11595378 159 16916777522594990693
11640471 11 17489015063077871808
1200032 147 16555140425578337705
12035758 1 18336530678379568170
12553582 1 17837742583957618550
12633257 1 18187918534077995488
12644460 14 18131639971454896388
12788726 201 16753520592661950530
13533116 47 18409739435247944811
13583140 156 18129649920329087481
13726171 33 15503238673640222759
13965767 371 17274825718352431945
14251764 30 18127980693995746622
14844126 61 16468069807775826282
14955137 171 17632301125588291766
17921350 177 16762319052068689113
1813 80 17701549407256087734
20603629 256 18413384328361460914
20645477 70 18118932919651391797
21427221 339 17346311557959254782
21756936 100 17836646697256379404
23402539 116 10882495978167399672
23419403 2 18187082824190543802
23493267 7 15768923718240538348
23557571 272 16878213182505069180
23559900 14 17894919498935244757
35225 105 17411341318274915738
3797600 57 17344630563757971935
394222 165 17703520976958097480
458136 41 18337385050116366276
6823239 73 17240780474716634247
9709674 26 18113332020831838473

>  <PUBCHEM_SHAPE_MULTIPOLES>  (1) 
442.85
7.81
2.83
2.41
6.68
1.71
-0.68
-1.12
4.51
-4.65
0.36
1.86
0.18
0.58

>  <PUBCHEM_SHAPE_SELFOVERLAP>  (1) 
928.315

>  <PUBCHEM_SHAPE_VOLUME>  (1) 
250.5

>  <PUBCHEM_COORDINATE_TYPE>  (1) 
2
5
10

$$$$
