47792
     RDKit          3D

 10  9  0  0  1  0  0  0  0  0999 V2000
   -1.1207    0.7676   -0.2356 O   0  0  0  0  0  0  0  0  0  0  0  0
   -1.4711   -1.5172   -0.2307 O   0  0  0  0  0  0  0  0  0  0  0  0
    2.3126   -1.4454   -0.6293 O   0  0  0  0  0  0  0  0  0  0  0  0
    1.0346   -0.1571    0.4446 N   0  0  0  0  0  0  0  0  0  0  0  0
    2.2722   -0.4369    0.0857 N   0  0  0  0  0  0  0  0  0  0  0  0
    0.2834    0.6246   -0.5689 C   0  0  0  0  0  0  0  0  0  0  0  0
    0.8896    2.0211   -0.7635 C   0  0  0  0  0  0  0  0  0  0  0  0
    0.9395    0.5072    1.7544 C   0  0  0  0  0  0  0  0  0  0  0  0
   -1.8644   -0.3664   -0.1000 C   0  0  0  0  0  0  0  0  0  0  0  0
   -3.2758    0.0025    0.2433 C   0  0  0  0  0  0  0  0  0  0  0  0
  1  6  1  0
  1  9  1  0
  2  9  2  0
  3  5  2  0
  4  5  1  0
  4  6  1  0
  4  8  1  0
  6  7  1  0
  9 10  1  0
M  END
>  <PUBCHEM_COMPOUND_CID>  (1) 
47792

>  <PUBCHEM_CONFORMER_RMSD>  (1) 
0.6

>  <PUBCHEM_CONFORMER_DIVERSEORDER>  (1) 
8
60
53
80
16
36
67
65
73
82
30
11
21
15
66
38
25
55
29
46
28
58
24
70
1
75
19
13
83
18
9
85
34
43
50
40
49
79
84
27
48
62
3
33
61
76
6
56
12
77
10
78
54
64
39
41
52
45
20
17
59
31
2
4
22
47
37
51
26
68
35
57
74
44
71
7
42
69
63
32
72
23
5
81
14

>  <PUBCHEM_MMFF94_PARTIAL_CHARGES>  (1) 
9
1 -0.43
10 0.06
2 -0.57
3 -0.16
4 -0.36
5 -0.01
6 0.55
8 0.27
9 0.66

>  <PUBCHEM_EFFECTIVE_ROTOR_COUNT>  (1) 
4

>  <PUBCHEM_PHARMACOPHORE_FEATURES>  (1) 
1
1 2 acceptor

>  <PUBCHEM_HEAVY_ATOM_COUNT>  (1) 
10

>  <PUBCHEM_ATOM_DEF_STEREO_COUNT>  (1) 
0

>  <PUBCHEM_ATOM_UDEF_STEREO_COUNT>  (1) 
1

>  <PUBCHEM_BOND_DEF_STEREO_COUNT>  (1) 
0

>  <PUBCHEM_BOND_UDEF_STEREO_COUNT>  (1) 
0

>  <PUBCHEM_ISOTOPIC_ATOM_COUNT>  (1) 
0

>  <PUBCHEM_COMPONENT_COUNT>  (1) 
1

>  <PUBCHEM_CACTVS_TAUTO_COUNT>  (1) 
1

>  <PUBCHEM_CONFORMER_ID>  (1) 
0000BAB000000008

>  <PUBCHEM_MMFF94_ENERGY>  (1) 
18.8431

>  <PUBCHEM_FEATURE_SELFOVERLAP>  (1) 
5.074

>  <PUBCHEM_SHAPE_FINGERPRINT>  (1) 
12932764 1 17345759736666959127
14128692 85 18341342170662614302
15310529 11 15357969041188757867
207724 885 18336838498005014297
21061003 4 17416382296248032010
21922407 69 16555902489941111975
23552423 10 18263078975973850991
23552449 11 17750779112191420969
24536 1 18193541484008601719
29004967 10 18408603660567710208
5084963 1 18343019986957583897

>  <PUBCHEM_SHAPE_MULTIPOLES>  (1) 
178.23
3.68
1.55
1.09
2.34
0.34
-0.56
-1
0.02
-0.68
0.52
-0.49
0.13
0.04

>  <PUBCHEM_SHAPE_SELFOVERLAP>  (1) 
333.103

>  <PUBCHEM_SHAPE_VOLUME>  (1) 
111.8

>  <PUBCHEM_COORDINATE_TYPE>  (1) 
2
5
10

$$$$
