47796
     RDKit          3D

  9  9  0  0  0  0  0  0  0  0999 V2000
    2.7062   -1.2750   -0.2229 O   0  0  0  0  0  0  0  0  0  0  0  0
    2.6012    0.9038    0.4386 O   0  0  0  0  0  0  0  0  0  0  0  0
   -1.3750    0.6719   -0.0732 C   0  0  0  0  0  0  0  0  0  0  0  0
    0.5233   -0.2849   -0.1551 C   0  0  0  0  0  0  0  0  0  0  0  0
   -0.1632    0.7925   -1.0205 C   0  0  0  0  0  0  0  0  0  0  0  0
   -0.3873    0.1745    1.0027 C   0  0  0  0  0  0  0  0  0  0  0  0
   -2.4006   -0.3806   -0.5078 C   0  0  0  0  0  0  0  0  0  0  0  0
    2.0533   -0.1224    0.0643 C   0  0  0  0  0  0  0  0  0  0  0  0
   -3.5580   -0.4797    0.4740 C   0  0  0  0  0  0  0  0  0  0  0  0
  1  8  1  0
  2  8  2  0
  3  5  1  0
  3  6  1  0
  3  7  1  0
  4  5  1  0
  4  6  1  0
  4  8  1  0
  7  9  1  0
M  END
>  <PUBCHEM_COMPOUND_CID>  (1) 
47796

>  <PUBCHEM_CONFORMER_RMSD>  (1) 
0.6

>  <PUBCHEM_CONFORMER_DIVERSEORDER>  (1) 
1
3
12
6
9
11
4
10
5
2
7
8

>  <PUBCHEM_MMFF94_PARTIAL_CHARGES>  (1) 
5
1 -0.65
2 -0.57
21 0.5
4 0.05
8 0.67

>  <PUBCHEM_EFFECTIVE_ROTOR_COUNT>  (1) 
2.8

>  <PUBCHEM_PHARMACOPHORE_FEATURES>  (1) 
5
1 1 acceptor
1 2 acceptor
1 9 hydrophobe
3 1 2 8 anion
4 3 4 5 6 rings

>  <PUBCHEM_HEAVY_ATOM_COUNT>  (1) 
9

>  <PUBCHEM_ATOM_DEF_STEREO_COUNT>  (1) 
0

>  <PUBCHEM_ATOM_UDEF_STEREO_COUNT>  (1) 
0

>  <PUBCHEM_BOND_DEF_STEREO_COUNT>  (1) 
0

>  <PUBCHEM_BOND_UDEF_STEREO_COUNT>  (1) 
0

>  <PUBCHEM_ISOTOPIC_ATOM_COUNT>  (1) 
0

>  <PUBCHEM_COMPONENT_COUNT>  (1) 
1

>  <PUBCHEM_CACTVS_TAUTO_COUNT>  (1) 
1

>  <PUBCHEM_CONFORMER_ID>  (1) 
0000BAB400000001

>  <PUBCHEM_MMFF94_ENERGY>  (1) 
13.0913

>  <PUBCHEM_FEATURE_SELFOVERLAP>  (1) 
25.427

>  <PUBCHEM_SHAPE_FINGERPRINT>  (1) 
10219947 1 18341896311733069871
10857977 72 18040706004656671017
11062470 55 18413108381392560969
12897270 3 17894906296031689879
12932764 1 17846211172221016613
14325111 11 18413669110568289393
14390081 3 10807938154542676879
15310529 11 18060132137415105440
20653085 51 10809615966231521279
21293036 1 16153718629923689782
23552423 10 15214407929452783289
29004967 10 18335419084191006161
369184 2 18131346393107299329
5084963 1 18114464461683715980

>  <PUBCHEM_SHAPE_MULTIPOLES>  (1) 
173.48
4.72
1
0.91
1.08
0.04
-0.06
-1.29
-0.16
-0.22
0.12
0.02
0.04
0.31

>  <PUBCHEM_SHAPE_SELFOVERLAP>  (1) 
337.009

>  <PUBCHEM_SHAPE_VOLUME>  (1) 
107.2

>  <PUBCHEM_COORDINATE_TYPE>  (1) 
2
5
10

$$$$
