47806
     RDKit          3D

 13 14  0  0  0  0  0  0  0  0999 V2000
   -4.5474   -0.0778   -0.3992 O   0  0  0  0  0  0  0  0  0  0  0  0
   -3.2252    0.3190    1.4148 O   0  0  0  0  0  0  0  0  0  0  0  0
   -0.3254    0.0546    0.2514 C   0  0  0  0  0  0  0  0  0  0  0  0
   -2.1695   -0.1777   -0.7835 C   0  0  0  0  0  0  0  0  0  0  0  0
   -1.0771   -1.1648   -0.3222 C   0  0  0  0  0  0  0  0  0  0  0  0
   -1.0757    0.9103   -0.7905 C   0  0  0  0  0  0  0  0  0  0  0  0
    1.2366    0.0303    0.1499 C   0  0  0  0  0  0  0  0  0  0  0  0
   -3.3534    0.0515    0.2293 C   0  0  0  0  0  0  0  0  0  0  0  0
    1.9430    1.2284    0.0435 C   0  0  0  0  0  0  0  0  0  0  0  0
    1.9226   -1.1839    0.1730 C   0  0  0  0  0  0  0  0  0  0  0  0
    3.3354    1.2123   -0.0397 C   0  0  0  0  0  0  0  0  0  0  0  0
    3.3149   -1.2001    0.0898 C   0  0  0  0  0  0  0  0  0  0  0  0
    4.0212   -0.0020   -0.0166 C   0  0  0  0  0  0  0  0  0  0  0  0
  1  8  1  0
  2  8  2  0
  3  5  1  0
  3  6  1  0
  3  7  1  0
  4  5  1  0
  4  6  1  0
  4  8  1  0
  7  9  2  0
  7 10  1  0
  9 11  1  0
 10 12  2  0
 11 13  2  0
 12 13  1  0
M  END
>  <PUBCHEM_COMPOUND_CID>  (1) 
47806

>  <PUBCHEM_CONFORMER_RMSD>  (1) 
0.6

>  <PUBCHEM_CONFORMER_DIVERSEORDER>  (1) 
1
4
5
2
3

>  <PUBCHEM_MMFF94_PARTIAL_CHARGES>  (1) 
17
1 -0.65
10 -0.15
11 -0.15
12 -0.15
13 -0.15
2 -0.57
20 0.15
21 0.15
22 0.15
23 0.15
24 0.5
25 0.15
3 0.11
4 0.05
7 -0.11
8 0.67
9 -0.15

>  <PUBCHEM_EFFECTIVE_ROTOR_COUNT>  (1) 
2.8

>  <PUBCHEM_PHARMACOPHORE_FEATURES>  (1) 
5
1 1 acceptor
1 2 acceptor
3 1 2 8 anion
4 3 4 5 6 rings
6 7 9 10 11 12 13 rings

>  <PUBCHEM_HEAVY_ATOM_COUNT>  (1) 
13

>  <PUBCHEM_ATOM_DEF_STEREO_COUNT>  (1) 
0

>  <PUBCHEM_ATOM_UDEF_STEREO_COUNT>  (1) 
0

>  <PUBCHEM_BOND_DEF_STEREO_COUNT>  (1) 
0

>  <PUBCHEM_BOND_UDEF_STEREO_COUNT>  (1) 
0

>  <PUBCHEM_ISOTOPIC_ATOM_COUNT>  (1) 
0

>  <PUBCHEM_COMPONENT_COUNT>  (1) 
1

>  <PUBCHEM_CACTVS_TAUTO_COUNT>  (1) 
1

>  <PUBCHEM_CONFORMER_ID>  (1) 
0000BABE00000001

>  <PUBCHEM_MMFF94_ENERGY>  (1) 
32.0134

>  <PUBCHEM_FEATURE_SELFOVERLAP>  (1) 
25.428

>  <PUBCHEM_SHAPE_FINGERPRINT>  (1) 
10130415 120 18131348600984194888
10219947 1 18407761438718404837
10608611 8 18260821592581498244
11031198 65 18261118495407315932
11062470 55 8935000373664623191
11471102 20 18410008840844294516
11615757 297 18342739619718594745
12032990 46 18040157305272641606
12251169 10 18342458153210453879
124424 183 12823300087423732710
12932764 1 18040985246398035342
13296908 3 17749103378992201212
13380535 21 18337116777573776270
14144814 61 18272651238015519232
14325111 11 18410290315472852053
14445660 50 18341900718153270163
14943859 89 16558750122173015567
15309172 13 18411703179567579451
15775835 57 18341332288048354662
16945 1 18336253596616128926
17834072 33 18272083950556683215
17844478 74 17894914009671699276
18175812 5 17748829630883351527
18186145 218 18413388730934872374
190213 19 18060137643526086779
19422 9 18130787875554995815
200 152 18343574145112969933
20279233 1 17530684312019128571
20281407 28 17530970176383785443
20528008 55 18260546740528429027
20645477 70 18263071150243043262
21730867 7 18260829306500620858
22485316 2 17822007614469574867
23048698 100 18343865519683401257
23402539 116 18339630192150292884
23402655 69 18411975845355265836
23557571 272 16226037856400405054
23559900 14 16515684412329733450
474 4 17985255524814032184
522135 26 18411417302159453342
69090 78 18410005559289223071
74978 22 17417241160235434698

>  <PUBCHEM_SHAPE_MULTIPOLES>  (1) 
255.8
7.64
1.26
0.85
2.52
0.04
0.1
-0.13
0.44
-0.96
-0.06
0.59
-0.06
-0.11

>  <PUBCHEM_SHAPE_SELFOVERLAP>  (1) 
536.495

>  <PUBCHEM_SHAPE_VOLUME>  (1) 
144.1

>  <PUBCHEM_COORDINATE_TYPE>  (1) 
2
5
10

$$$$
