47834
     RDKit          3D

 29 32  0  0  0  0  0  0  0  0999 V2000
   -8.7815   -2.0726    0.1940 O   0  0  0  0  0  0  0  0  0  0  0  0
    1.9809    0.3915   -1.3449 N   0  0  0  0  0  0  0  0  0  0  0  0
    5.2265   -0.9439    0.9467 N   0  0  0  0  0  0  0  0  0  0  0  0
  -10.4089   -0.5415    0.7320 N   0  0  0  0  0  0  0  0  0  0  0  0
   -4.3073    0.6460   -0.0160 C   0  0  0  0  0  0  0  0  0  0  0  0
   -5.7433    1.0553    0.3181 C   0  0  0  0  0  0  0  0  0  0  0  0
   -3.3459    1.8431    0.0374 C   0  0  0  0  0  0  0  0  0  0  0  0
   -6.6952   -0.1418    0.2339 C   0  0  0  0  0  0  0  0  0  0  0  0
   -1.9501    1.4628   -0.3246 C   0  0  0  0  0  0  0  0  0  0  0  0
    3.0816   -0.0613   -0.5678 C   0  0  0  0  0  0  0  0  0  0  0  0
   -8.1423    0.2439    0.5364 C   0  0  0  0  0  0  0  0  0  0  0  0
    0.6697    0.7486   -1.0043 C   0  0  0  0  0  0  0  0  0  0  0  0
    3.9740    0.8674   -0.0225 C   0  0  0  0  0  0  0  0  0  0  0  0
    3.2627   -1.4316   -0.3550 C   0  0  0  0  0  0  0  0  0  0  0  0
   -1.0620    1.0438    0.6661 C   0  0  0  0  0  0  0  0  0  0  0  0
   -1.5326    1.5257   -1.6540 C   0  0  0  0  0  0  0  0  0  0  0  0
    0.2434    0.6879    0.3274 C   0  0  0  0  0  0  0  0  0  0  0  0
   -0.2271    1.1698   -1.9927 C   0  0  0  0  0  0  0  0  0  0  0  0
    5.0474    0.3749    0.7388 C   0  0  0  0  0  0  0  0  0  0  0  0
    4.3639   -1.8341    0.4193 C   0  0  0  0  0  0  0  0  0  0  0  0
    3.8161    2.2502   -0.2201 C   0  0  0  0  0  0  0  0  0  0  0  0
    2.3815   -2.3869   -0.8908 C   0  0  0  0  0  0  0  0  0  0  0  0
   -9.1126   -0.9197    0.4546 C   0  0  0  0  0  0  0  0  0  0  0  0
    5.9393    1.2944    1.2843 C   0  0  0  0  0  0  0  0  0  0  0  0
    4.5496   -3.1971    0.6347 C   0  0  0  0  0  0  0  0  0  0  0  0
    4.7216    3.1486    0.3361 C   0  0  0  0  0  0  0  0  0  0  0  0
    2.5893   -3.7436   -0.6606 C   0  0  0  0  0  0  0  0  0  0  0  0
    5.7854    2.6693    1.0899 C   0  0  0  0  0  0  0  0  0  0  0  0
    3.6759   -4.1492    0.1037 C   0  0  0  0  0  0  0  0  0  0  0  0
  1 23  2  0
  2 10  1  0
  2 12  1  0
  3 19  2  0
  3 20  1  0
  4 23  1  0
  5  6  1  0
  5  7  1  0
  6  8  1  0
  7  9  1  0
  8 11  1  0
  9 15  2  0
  9 16  1  0
 10 13  2  0
 10 14  1  0
 11 23  1  0
 12 17  2  0
 12 18  1  0
 13 19  1  0
 13 21  1  0
 14 20  2  0
 14 22  1  0
 15 17  1  0
 16 18  2  0
 19 24  1  0
 20 25  1  0
 21 26  2  0
 22 27  2  0
 24 28  2  0
 25 29  2  0
 26 28  1  0
 27 29  1  0
M  END
>  <PUBCHEM_COMPOUND_CID>  (1) 
47834

>  <PUBCHEM_CONFORMER_RMSD>  (1) 
1

>  <PUBCHEM_CONFORMER_DIVERSEORDER>  (1) 
1
55
42
18
34
73
37
3
40
47
4
14
25
52
33
36
28
22
39
46
51
62
45
8
2
69
67
19
11
20
21
66
27
23
35
17
48
65
16
41
68
63
29
24
26
74
32
49
50
30
54
44
61
58
70
31
15
60
13
59
43
71
72
38
57
9
53
75
56
7
12
6
10
5
64

>  <PUBCHEM_MMFF94_PARTIAL_CHARGES>  (1) 
39
1 -0.57
10 0.1
11 0.06
12 0.1
15 -0.15
16 -0.15
17 -0.15
18 -0.15
19 0.31
2 -0.6
20 0.31
21 -0.15
22 -0.15
23 0.57
24 -0.15
25 -0.15
26 -0.15
27 -0.15
28 -0.15
29 -0.15
3 -0.62
4 -0.8
40 0.15
41 0.15
42 0.4
43 0.15
44 0.15
45 0.15
46 0.15
47 0.15
48 0.15
49 0.15
50 0.15
51 0.15
52 0.15
53 0.37
54 0.37
7 0.14
9 -0.14

>  <PUBCHEM_EFFECTIVE_ROTOR_COUNT>  (1) 
8

>  <PUBCHEM_PHARMACOPHORE_FEATURES>  (1) 
10
1 1 acceptor
1 2 cation
1 2 donor
1 3 acceptor
1 4 donor
5 5 6 7 8 11 hydrophobe
6 13 19 21 24 26 28 rings
6 14 20 22 25 27 29 rings
6 3 10 13 14 19 20 rings
6 9 12 15 16 17 18 rings

>  <PUBCHEM_HEAVY_ATOM_COUNT>  (1) 
29

>  <PUBCHEM_ATOM_DEF_STEREO_COUNT>  (1) 
0

>  <PUBCHEM_ATOM_UDEF_STEREO_COUNT>  (1) 
0

>  <PUBCHEM_BOND_DEF_STEREO_COUNT>  (1) 
0

>  <PUBCHEM_BOND_UDEF_STEREO_COUNT>  (1) 
0

>  <PUBCHEM_ISOTOPIC_ATOM_COUNT>  (1) 
0

>  <PUBCHEM_COMPONENT_COUNT>  (1) 
1

>  <PUBCHEM_CACTVS_TAUTO_COUNT>  (1) 
4

>  <PUBCHEM_CONFORMER_ID>  (1) 
0000BADA00000001

>  <PUBCHEM_MMFF94_ENERGY>  (1) 
98.46

>  <PUBCHEM_FEATURE_SELFOVERLAP>  (1) 
50.807

>  <PUBCHEM_SHAPE_FINGERPRINT>  (1) 
10 15 16917072170727300861
10165383 225 18336830888252030500
10939801 23 18129943494181256975
11103572 95 18336828581901369981
11828532 37 16950574323683949785
12623949 98 18339367344489235758
13073987 5 18342740672587430153
13383668 1 17530952571592791346
13533116 47 18337677416655301376
13692114 37 18336547204992210042
13726171 33 16055450959903309024
13782708 43 18116152177915317357
13835254 42 18335986363731048853
14400156 188 18337389319726004034
14565420 104 18272364330607338624
15183329 4 11314303936979970485
15419008 91 17895739752412628845
15475509 35 18343578513105532547
16990366 60 17977947887226863406
17492 89 18125157135149708936
1768 124 18408886231172992751
19301679 30 18335981974205536637
19377110 9 17917986161938164565
1979834 28 18334292072489573100
20505436 4 17774714364380562652
21049683 271 18264212405918212958
21130935 74 18339083692818277481
21197605 99 18410575076121468079
22149856 69 18340496586582403713
22899556 105 17695929739636232790
23572383 38 18113910380969955147
3663271 9 18202287970754913209
397830 11 18336261254707108405
4144715 1 17980480057608913892
42767 39 18187935032134719083
4340502 62 18342455954424724700
5104073 3 18199472069604573545
54076057 255 14692568862023318952
6441014 3 17328019867761964907
8988823 20 18411983537789346756
9658208 31 16665974285740307084
9689198 14 11024107660271627677

>  <PUBCHEM_SHAPE_MULTIPOLES>  (1) 
575.99
24.11
4
1.22
81.61
3.78
-0.4
5.7
10.5
-8.18
0.12
-0.55
-0.36
1.36

>  <PUBCHEM_SHAPE_SELFOVERLAP>  (1) 
1255.852

>  <PUBCHEM_SHAPE_VOLUME>  (1) 
311.4

>  <PUBCHEM_COORDINATE_TYPE>  (1) 
2
5
10

$$$$
