47844
     RDKit          3D

 17 17  0  0  1  0  0  0  0  0999 V2000
   -2.1621    0.8118    0.4333 O   0  0  0  0  0  0  0  0  0  0  0  0
   -2.3107   -1.4623    0.0911 O   0  0  0  0  0  0  0  0  0  0  0  0
   -4.9651   -1.2962   -0.4316 N   0  0  0  0  0  0  0  0  0  0  0  0
   -0.7670    0.6752    0.7231 C   0  0  0  0  0  0  0  0  0  0  0  0
   -0.0522    0.1202   -0.5290 C   0  0  0  0  0  0  0  0  0  0  0  0
   -0.2244    2.0759    1.0335 C   0  0  0  0  0  0  0  0  0  0  0  0
   -0.6069   -0.2245    1.9515 C   0  0  0  0  0  0  0  0  0  0  0  0
    1.4490   -0.0134   -0.4106 C   0  0  0  0  0  0  0  0  0  0  0  0
    2.2553    1.0504   -0.7793 C   0  0  0  0  0  0  0  0  0  0  0  0
    1.9876   -1.1976    0.0646 C   0  0  0  0  0  0  0  0  0  0  0  0
   -2.8185   -0.3491    0.1303 C   0  0  0  0  0  0  0  0  0  0  0  0
   -4.2754   -0.0371   -0.1559 C   0  0  0  0  0  0  0  0  0  0  0  0
    3.6403    0.9265   -0.6701 C   0  0  0  0  0  0  0  0  0  0  0  0
    3.3726   -1.3213    0.1739 C   0  0  0  0  0  0  0  0  0  0  0  0
    4.1989   -0.2592   -0.1934 C   0  0  0  0  0  0  0  0  0  0  0  0
   -4.4011    0.8917   -1.3559 C   0  0  0  0  0  0  0  0  0  0  0  0
    5.6797   -0.3911   -0.0756 C   0  0  0  0  0  0  0  0  0  0  0  0
  1  4  1  0
  1 11  1  0
  2 11  2  0
  3 12  1  0
  4  5  1  0
  4  6  1  0
  4  7  1  0
  5  8  1  0
  8  9  2  0
  8 10  1  0
  9 13  1  0
 10 14  2  0
 11 12  1  0
 12 16  1  0
 13 15  2  0
 14 15  1  0
 15 17  1  0
M  END
>  <PUBCHEM_COMPOUND_CID>  (1) 
47844

>  <PUBCHEM_CONFORMER_RMSD>  (1) 
0.6

>  <PUBCHEM_CONFORMER_DIVERSEORDER>  (1) 
1
66
49
43
51
19
37
58
44
26
67
62
28
71
54
36
14
29
33
39
11
42
4
75
59
17
16
56
47
61
12
35
31
8
20
21
30
22
48
55
60
24
10
72
73
63
18
65
41
76
45
34
3
5
46
15
23
77
7
78
13
52
38
27
79
9
6
70
68
57
69
2
50
40
64
74
32
53
25

>  <PUBCHEM_MMFF94_PARTIAL_CHARGES>  (1) 
20
1 -0.43
10 -0.15
11 0.66
12 0.33
13 -0.15
14 -0.15
15 -0.14
17 0.14
2 -0.57
26 0.15
27 0.15
29 0.15
3 -0.99
30 0.15
37 0.36
38 0.36
4 0.28
5 0.14
8 -0.14
9 -0.15

>  <PUBCHEM_EFFECTIVE_ROTOR_COUNT>  (1) 
5

>  <PUBCHEM_PHARMACOPHORE_FEATURES>  (1) 
5
1 2 acceptor
1 3 cation
1 3 donor
3 4 6 7 hydrophobe
6 8 9 10 13 14 15 rings

>  <PUBCHEM_HEAVY_ATOM_COUNT>  (1) 
17

>  <PUBCHEM_ATOM_DEF_STEREO_COUNT>  (1) 
0

>  <PUBCHEM_ATOM_UDEF_STEREO_COUNT>  (1) 
1

>  <PUBCHEM_BOND_DEF_STEREO_COUNT>  (1) 
0

>  <PUBCHEM_BOND_UDEF_STEREO_COUNT>  (1) 
0

>  <PUBCHEM_ISOTOPIC_ATOM_COUNT>  (1) 
0

>  <PUBCHEM_COMPONENT_COUNT>  (1) 
1

>  <PUBCHEM_CACTVS_TAUTO_COUNT>  (1) 
1

>  <PUBCHEM_CONFORMER_ID>  (1) 
0000BAE400000001

>  <PUBCHEM_MMFF94_ENERGY>  (1) 
42.4676

>  <PUBCHEM_FEATURE_SELFOVERLAP>  (1) 
25.371

>  <PUBCHEM_SHAPE_FINGERPRINT>  (1) 
10366900 7 17775565325834141890
10922049 32 8430314653669467393
11045977 3 12319445611135531215
11315181 36 18333740113573142144
11401426 45 18113054935190274414
12236239 1 18342459236022240990
12500047 106 15864361276297674074
12815109 37 18343863307606406082
12916748 109 16587745339404629765
13214271 11 13686299037092077585
13533116 47 17458614576789143986
14787075 74 15123215676353997610
14943859 89 12829209979133516225
15375358 24 17167869672941315714
17834072 14 17894917334335004420
17844478 74 13614246940738778618
1798214 20 18411980256355152918
1813 80 16343712053197222689
18186145 218 16515399690199322485
18222031 100 16774068575077842709
187816 3 18113621183325229401
19010151 120 17988654003269397904
192875 21 18259991474625298320
19784866 170 8718557133608439079
200 152 18411981351677171988
20279233 1 17022913332811281298
20645477 56 11097862916857213438
20645477 70 18261111833760656542
20671657 53 18131635616516625361
20871999 31 18341326704723089305
21119208 17 18259985972170422295
21267235 1 18341060665626699454
23402539 116 18273215261753248273
23402655 69 18114181904296190644
23557571 272 17489031453068868512
23559900 14 18410854395567395680
26918003 58 18334858324818683426
296302 2 17095533919641429684
4214541 1 18259984873070192933
5283173 99 18262228920073030021
57005193 9 18408884027448535914
633830 44 16008749134224178359
69090 78 17967533484327026523
7495541 125 18270684306841122339
9709674 26 18336275556420540066

>  <PUBCHEM_SHAPE_MULTIPOLES>  (1) 
333.13
10.35
1.49
1.16
0.17
0.19
0.36
-2.11
-3.17
-0.17
0.14
-0.6
0.25
-0.17

>  <PUBCHEM_SHAPE_SELFOVERLAP>  (1) 
679.872

>  <PUBCHEM_SHAPE_VOLUME>  (1) 
193.6

>  <PUBCHEM_COORDINATE_TYPE>  (1) 
2
5
10

$$$$
