47845
     RDKit          3D

 18 19  0  0  1  0  0  0  0  0999 V2000
    0.4295   -2.7683   -0.5611 O   0  0  0  0  0  0  0  0  0  0  0  0
   -3.6551   -0.6611    0.3996 O   0  0  0  0  0  0  0  0  0  0  0  0
    0.3933   -0.4452   -0.4332 N   0  0  0  0  0  0  0  0  0  0  0  0
   -1.6211   -1.7432   -0.0810 N   0  0  0  0  0  0  0  0  0  0  0  0
   -2.1296    1.8971    0.2135 N   0  0  0  0  0  0  0  0  0  0  0  0
    0.0522    1.9842   -0.2361 N   0  0  0  0  0  0  0  0  0  0  0  0
    2.6997   -0.3202    0.5346 C   0  0  0  0  0  0  0  0  0  0  0  0
    1.8155   -0.3069   -0.7215 C   0  0  0  0  0  0  0  0  0  0  0  0
    4.1886   -0.0395    0.2543 C   0  0  0  0  0  0  0  0  0  0  0  0
   -0.3812    0.6857   -0.2136 C   0  0  0  0  0  0  0  0  0  0  0  0
    2.5553   -1.6454    1.2913 C   0  0  0  0  0  0  0  0  0  0  0  0
   -1.7192    0.6038    0.0603 C   0  0  0  0  0  0  0  0  0  0  0  0
   -0.2097   -1.7266   -0.3745 C   0  0  0  0  0  0  0  0  0  0  0  0
   -2.4539   -0.6162    0.1504 C   0  0  0  0  0  0  0  0  0  0  0  0
    4.4407    1.3035   -0.4162 C   0  0  0  0  0  0  0  0  0  0  0  0
   -1.0278    2.6911    0.0256 C   0  0  0  0  0  0  0  0  0  0  0  0
   -2.2600   -3.0531   -0.0148 C   0  0  0  0  0  0  0  0  0  0  0  0
   -1.1172    4.1601    0.1224 C   0  0  0  0  0  0  0  0  0  0  0  0
  1 13  2  0
  2 14  2  0
  3  8  1  0
  3 10  1  0
  3 13  1  0
  4 13  1  0
  4 14  1  0
  4 17  1  0
  5 12  1  0
  5 16  1  0
  6 10  1  0
  6 16  2  0
  7  8  1  0
  7  9  1  0
  7 11  1  0
  9 15  1  0
 10 12  2  0
 12 14  1  0
 16 18  1  0
M  END
>  <PUBCHEM_COMPOUND_CID>  (1) 
47845

>  <PUBCHEM_CONFORMER_RMSD>  (1) 
0.6

>  <PUBCHEM_CONFORMER_DIVERSEORDER>  (1) 
1
10
12
7
5
11
9
8
6
3
4
2

>  <PUBCHEM_MMFF94_PARTIAL_CHARGES>  (1) 
15
1 -0.57
10 0.29
12 -0.24
13 0.69
14 0.71
16 0.01
17 0.3
18 0.18
2 -0.57
3 -0.42
30 0.27
4 -0.42
5 0.03
6 -0.57
8 0.3

>  <PUBCHEM_EFFECTIVE_ROTOR_COUNT>  (1) 
3

>  <PUBCHEM_PHARMACOPHORE_FEATURES>  (1) 
8
1 1 acceptor
1 11 hydrophobe
1 15 hydrophobe
1 2 acceptor
1 5 donor
3 5 6 16 cation
5 5 6 10 12 16 rings
6 3 4 10 12 13 14 rings

>  <PUBCHEM_HEAVY_ATOM_COUNT>  (1) 
18

>  <PUBCHEM_ATOM_DEF_STEREO_COUNT>  (1) 
0

>  <PUBCHEM_ATOM_UDEF_STEREO_COUNT>  (1) 
1

>  <PUBCHEM_BOND_DEF_STEREO_COUNT>  (1) 
0

>  <PUBCHEM_BOND_UDEF_STEREO_COUNT>  (1) 
0

>  <PUBCHEM_ISOTOPIC_ATOM_COUNT>  (1) 
0

>  <PUBCHEM_COMPONENT_COUNT>  (1) 
1

>  <PUBCHEM_CACTVS_TAUTO_COUNT>  (1) 
3

>  <PUBCHEM_CONFORMER_ID>  (1) 
0000BAE500000001

>  <PUBCHEM_MMFF94_ENERGY>  (1) 
24.4408

>  <PUBCHEM_FEATURE_SELFOVERLAP>  (1) 
40.709

>  <PUBCHEM_SHAPE_FINGERPRINT>  (1) 
10411042 1 18123189279587230902
10906281 52 18339377309404023517
10967382 1 18411139181567992647
1100329 8 18120942964366914329
11578080 2 17391038767390585188
11680986 33 17908696581584287715
12173636 292 18267859502286888444
12553582 1 18337946912847066723
13027679 85 18338513174568361381
13132413 78 18196093471707781813
13140716 1 18195818594349594083
13583140 156 16880204290668079609
14420673 8 17760920746208208346
14648413 74 17619633479687533034
14787075 74 17680150965058629554
14790565 3 18340219517931311321
15042514 8 18410295825890025730
15375462 189 18114741658799452362
15490181 8 17979061696293118526
16945 1 18411707556176073559
193761 8 17834680392339059967
19591789 44 15599769665434810210
20510252 161 18270965648077865008
20871998 184 18412545375282733527
21029758 11 18340197592175233285
21524375 3 17695892350541796396
21650355 55 18338223972729168482
2334 1 17979640361758761615
23388829 49 18334296500025212092
23402539 116 18271798038873663047
23419403 2 17613966983331263799
23557571 272 18201169801546525604
23558518 356 18190462645208379610
23559900 14 18198342854072324398
23598294 1 18337386046089758952
2748010 2 18197209463436230927
34934 24 18337105769319317551
350125 39 17979649934882103183
352729 6 18050560746935202697
474 4 17403447477633322376
7097593 13 17827060824203998018
7364860 26 17475796923298782911
81228 2 18340782459119802201
90316 7 18410846694121035994

>  <PUBCHEM_SHAPE_MULTIPOLES>  (1) 
338.77
5.81
4.03
0.8
6.03
2.53
0.09
-0.27
0.61
-2.96
0.04
0.4
-0.2
-0.52

>  <PUBCHEM_SHAPE_SELFOVERLAP>  (1) 
707.296

>  <PUBCHEM_SHAPE_VOLUME>  (1) 
192.6

>  <PUBCHEM_COORDINATE_TYPE>  (1) 
2
5
10

$$$$
