47854
     RDKit          3D

 25 27  0  0  0  0  0  0  0  0999 V2000
   -0.7846   -0.3122   -0.8991 O   0  0  0  0  0  0  0  0  0  0  0  0
    3.3340   -2.5419    0.2619 O   0  0  0  0  0  0  0  0  0  0  0  0
    0.6542   -2.6829   -0.8645 O   0  0  0  0  0  0  0  0  0  0  0  0
    2.8785    2.0211    1.1456 O   0  0  0  0  0  0  0  0  0  0  0  0
    0.8492    2.9873   -1.9917 O   0  0  0  0  0  0  0  0  0  0  0  0
   -4.2847   -0.7701    0.1384 N   0  0  0  0  0  0  0  0  0  0  0  0
    0.2993    2.0367    0.0934 N   0  0  0  0  0  0  0  0  0  0  0  0
   -5.5700   -0.7414   -0.5590 C   0  0  0  0  0  0  0  0  0  0  0  0
   -4.4105    0.2204    1.2074 C   0  0  0  0  0  0  0  0  0  0  0  0
   -6.5742   -0.6652    0.5816 C   0  0  0  0  0  0  0  0  0  0  0  0
   -5.8133   -0.0299    1.7412 C   0  0  0  0  0  0  0  0  0  0  0  0
   -3.1650   -0.4912   -0.7486 C   0  0  0  0  0  0  0  0  0  0  0  0
   -1.8483   -0.5739    0.0069 C   0  0  0  0  0  0  0  0  0  0  0  0
    0.4848   -0.3260   -0.3825 C   0  0  0  0  0  0  0  0  0  0  0  0
    1.0422    0.8504    0.1207 C   0  0  0  0  0  0  0  0  0  0  0  0
    1.1932   -1.5297   -0.3750 C   0  0  0  0  0  0  0  0  0  0  0  0
    3.0722   -0.3359    0.6718 C   0  0  0  0  0  0  0  0  0  0  0  0
    2.4791   -1.4855    0.1604 C   0  0  0  0  0  0  0  0  0  0  0  0
    2.3387    0.8633    0.6532 C   0  0  0  0  0  0  0  0  0  0  0  0
    4.3649   -0.7295    1.1076 C   0  0  0  0  0  0  0  0  0  0  0  0
    4.4726   -2.0740    0.8366 C   0  0  0  0  0  0  0  0  0  0  0  0
    0.2502    2.9979   -0.9212 C   0  0  0  0  0  0  0  0  0  0  0  0
    1.3394   -3.3084   -1.9468 C   0  0  0  0  0  0  0  0  0  0  0  0
    4.0728    2.4860    0.5267 C   0  0  0  0  0  0  0  0  0  0  0  0
   -0.6747    4.1346   -0.5649 C   0  0  0  0  0  0  0  0  0  0  0  0
  1 13  1  0
  1 14  1  0
  2 18  1  0
  2 21  1  0
  3 16  1  0
  3 23  1  0
  4 19  1  0
  4 24  1  0
  5 22  2  0
  6  8  1  0
  6  9  1  0
  6 12  1  0
  7 15  1  0
  7 22  1  0
  8 10  1  0
  9 11  1  0
 10 11  1  0
 12 13  1  0
 14 15  2  0
 14 16  1  0
 15 19  1  0
 16 18  2  0
 17 18  1  0
 17 19  2  0
 17 20  1  0
 20 21  2  0
 22 25  1  0
M  END
>  <PUBCHEM_COMPOUND_CID>  (1) 
47854

>  <PUBCHEM_CONFORMER_RMSD>  (1) 
1

>  <PUBCHEM_CONFORMER_DIVERSEORDER>  (1) 
1
21
18
15
5
4
20
16
9
17
12
2
3
8
13
22
11
10
14
19
6
7

>  <PUBCHEM_MMFF94_PARTIAL_CHARGES>  (1) 
25
1 -0.36
12 0.27
13 0.28
14 0.08
15 0.12
16 0.08
18 0.14
19 0.08
2 -0.28
20 -0.15
21 -0.01
22 0.57
23 0.28
24 0.28
25 0.06
3 -0.36
38 0.15
39 0.37
4 -0.36
40 0.15
5 -0.57
6 -0.81
7 -0.55
8 0.27
9 0.27

>  <PUBCHEM_EFFECTIVE_ROTOR_COUNT>  (1) 
9

>  <PUBCHEM_PHARMACOPHORE_FEATURES>  (1) 
10
1 1 acceptor
1 2 acceptor
1 3 acceptor
1 4 acceptor
1 5 acceptor
1 6 cation
1 7 donor
5 2 17 18 20 21 rings
5 6 8 9 10 11 rings
6 14 15 16 17 18 19 rings

>  <PUBCHEM_HEAVY_ATOM_COUNT>  (1) 
25

>  <PUBCHEM_ATOM_DEF_STEREO_COUNT>  (1) 
0

>  <PUBCHEM_ATOM_UDEF_STEREO_COUNT>  (1) 
0

>  <PUBCHEM_BOND_DEF_STEREO_COUNT>  (1) 
0

>  <PUBCHEM_BOND_UDEF_STEREO_COUNT>  (1) 
0

>  <PUBCHEM_ISOTOPIC_ATOM_COUNT>  (1) 
0

>  <PUBCHEM_COMPONENT_COUNT>  (1) 
1

>  <PUBCHEM_CACTVS_TAUTO_COUNT>  (1) 
2

>  <PUBCHEM_CONFORMER_ID>  (1) 
0000BAEE00000001

>  <PUBCHEM_MMFF94_ENERGY>  (1) 
96.4716

>  <PUBCHEM_FEATURE_SELFOVERLAP>  (1) 
50.856

>  <PUBCHEM_SHAPE_FINGERPRINT>  (1) 
10688039 33 18187362078125889125
11545043 162 16950001448762148441
11578080 2 14780991578313023652
12236239 1 17489864951428197363
12293681 25 17765706928116552463
12422481 6 18200030617047295681
12633257 1 18334576867317669875
13140716 1 18122320623274034882
13540713 4 17839168620632308710
14178342 30 17550359162407887954
14341114 176 18336267920627421491
14790565 3 17903358448268968124
14955137 171 18117844519521189508
15081414 286 18335136531120053685
15238133 3 16917352523989547755
15420108 30 18058440083720248486
15475509 35 17168689857139814538
15475509 84 18059575724365538609
15885798 251 18334857177962032803
1601671 61 18263925608443573380
17980427 26 16485819554778996072
1813 80 18336559209219489543
19377110 9 17846226613705028107
1979834 28 18343589546834298083
20739085 24 18411141346047075412
20775438 99 11097859635207509048
21641784 216 17969238754195501620
22182313 1 18117813604409857868
2748010 2 17911776009280943210
350125 39 18340761564626659992
465052 167 18408322164201247906
474 4 18267585887368860985
5283268 108 18335701611329436752
59554788 170 18411693297348926516
9971528 1 18335700568037427793

>  <PUBCHEM_SHAPE_MULTIPOLES>  (1) 
475.18
11.49
4
1.41
19.87
2.92
0.24
-4.32
-5.98
-3.89
2.01
0.26
-0.07
0.13

>  <PUBCHEM_SHAPE_SELFOVERLAP>  (1) 
1007.758

>  <PUBCHEM_SHAPE_VOLUME>  (1) 
270.5

>  <PUBCHEM_COORDINATE_TYPE>  (1) 
2
5
10

$$$$
