47872
     RDKit          3D

 20 22  0  0  1  0  0  0  0  0999 V2000
   -0.4253    1.2384    0.0658 O   0  0  0  0  0  0  0  0  0  0  0  0
   -4.5965   -0.8127   -0.5102 O   0  0  0  0  0  0  0  0  0  0  0  0
   -2.2618    2.4507   -0.5729 O   0  0  0  0  0  0  0  0  0  0  0  0
   -3.4195   -0.0041   -2.3023 O   0  0  0  0  0  0  0  0  0  0  0  0
    2.2407    0.2273    0.5387 N   0  0  0  0  0  0  0  0  0  0  0  0
   -2.4669    0.0788   -0.0632 C   0  0  0  0  0  0  0  0  0  0  0  0
   -1.3200   -0.9143   -0.1116 C   0  0  0  0  0  0  0  0  0  0  0  0
   -3.2776    0.0438    1.2197 C   0  0  0  0  0  0  0  0  0  0  0  0
   -0.1736   -0.1137    0.4726 C   0  0  0  0  0  0  0  0  0  0  0  0
   -4.3544   -0.9714    0.8945 C   0  0  0  0  0  0  0  0  0  0  0  0
   -1.7521    1.3938   -0.2334 C   0  0  0  0  0  0  0  0  0  0  0  0
   -3.5117   -0.2265   -1.1046 C   0  0  0  0  0  0  0  0  0  0  0  0
    1.1854   -0.5576   -0.0353 C   0  0  0  0  0  0  0  0  0  0  0  0
   -5.6413   -0.7454    1.6656 C   0  0  0  0  0  0  0  0  0  0  0  0
    3.5915    0.0246    0.2774 C   0  0  0  0  0  0  0  0  0  0  0  0
    4.0085   -0.9957   -0.5936 C   0  0  0  0  0  0  0  0  0  0  0  0
    4.5678    0.8360    0.8793 C   0  0  0  0  0  0  0  0  0  0  0  0
    5.3635   -1.1993   -0.8550 C   0  0  0  0  0  0  0  0  0  0  0  0
    5.9228    0.6324    0.6177 C   0  0  0  0  0  0  0  0  0  0  0  0
    6.3205   -0.3852   -0.2495 C   0  0  0  0  0  0  0  0  0  0  0  0
  1  9  1  0
  1 11  1  0
  2 10  1  0
  2 12  1  0
  3 11  2  0
  4 12  2  0
  5 13  1  0
  5 15  1  0
  6  7  1  0
  6  8  1  0
  6 11  1  0
  6 12  1  0
  7  9  1  0
  8 10  1  0
  9 13  1  0
 10 14  1  0
 15 16  2  0
 15 17  1  0
 16 18  1  0
 17 19  2  0
 18 20  2  0
 19 20  1  0
M  END
>  <PUBCHEM_COMPOUND_CID>  (1) 
47872

>  <PUBCHEM_CONFORMER_RMSD>  (1) 
0.6

>  <PUBCHEM_CONFORMER_DIVERSEORDER>  (1) 
1
136
130
27
80
117
118
65
94
121
134
29
108
4
135
132
107
39
102
133
53
137
11
86
120
6
59
122
103
82
87
129
14
109
37
47
111
123
124
16
100
12
30
113
127
54
128
74
41
48
125
9
126
62
78
88
73
93
55
97
114
70
17
2
110
81
26
96
71
131
77
46
91
99
72
101
20
22
105
51
90
35
76
85
64
3
115
116
32
24
36
28
61
8
33
119
7
106
18
52
57
40
45
75
66
15
60
38
63
69
49
58
23
68
92
21
89
13
83
112
19
5
79
10
44
84
31
25
34
104
56
95
98
42
67
50
43

>  <PUBCHEM_MMFF94_PARTIAL_CHARGES>  (1) 
23
1 -0.43
10 0.28
11 0.66
12 0.66
13 0.37
15 0.1
16 -0.15
17 -0.15
18 -0.15
19 -0.15
2 -0.43
20 -0.15
3 -0.57
32 0.4
33 0.15
34 0.15
35 0.15
36 0.15
37 0.15
4 -0.57
5 -0.87
6 0.12
9 0.28

>  <PUBCHEM_EFFECTIVE_ROTOR_COUNT>  (1) 
4.2

>  <PUBCHEM_PHARMACOPHORE_FEATURES>  (1) 
7
1 3 acceptor
1 4 acceptor
1 5 cation
1 5 donor
5 1 6 7 9 11 rings
5 2 6 8 10 12 rings
6 15 16 17 18 19 20 rings

>  <PUBCHEM_HEAVY_ATOM_COUNT>  (1) 
20

>  <PUBCHEM_ATOM_DEF_STEREO_COUNT>  (1) 
0

>  <PUBCHEM_ATOM_UDEF_STEREO_COUNT>  (1) 
3

>  <PUBCHEM_BOND_DEF_STEREO_COUNT>  (1) 
0

>  <PUBCHEM_BOND_UDEF_STEREO_COUNT>  (1) 
0

>  <PUBCHEM_ISOTOPIC_ATOM_COUNT>  (1) 
0

>  <PUBCHEM_COMPONENT_COUNT>  (1) 
1

>  <PUBCHEM_CACTVS_TAUTO_COUNT>  (1) 
1

>  <PUBCHEM_CONFORMER_ID>  (1) 
0000BB0000000001

>  <PUBCHEM_MMFF94_ENERGY>  (1) 
51.2926

>  <PUBCHEM_FEATURE_SELFOVERLAP>  (1) 
35.539

>  <PUBCHEM_SHAPE_FINGERPRINT>  (1) 
10680689 15 18342173349697444236
10912923 1 16702016496104937922
10937287 8 16232484129865805949
11089746 13 13984663659794533118
11315181 36 17167583795333177724
12107183 9 16267455231274851538
12166972 35 16443070521326998780
12236239 1 15267062558302796770
12403259 415 18201432567608804064
12596602 18 14836116689626244578
12616971 3 17489587870424128310
12916748 109 18260551126133000674
13073987 5 18261951848238878138
13167823 11 16989120963828522558
13288520 33 17346594201541558055
13631057 29 16443353125811536787
1420 363 18334862727244609978
14251718 22 17022625290697784034
14251764 18 16415482666537361411
17834072 33 16988841700865353642
17844677 252 18272655632347786096
1813 80 18201173108170449965
18927931 339 18409452479165197991
19141452 34 17988926712059738207
19433438 28 18410011022972660600
19489759 90 16370721530457760312
200 152 17489585662853285674
20281389 69 15985109595714967427
20645477 70 17632583713272820614
21033648 29 18271792519803972472
21150785 3 17095535015264571078
21267235 1 18336274487574414026
220451 1 17060341838276309486
22950370 63 16845572028456596290
2297311 6 18260557713911316434
23402539 116 18272367559784038612
23522609 53 17273718613523183296
23536379 177 16559037086271216778
23559900 14 14780123016024669517
300161 21 14764628595081702914
3268164 11 18261664892282823004
34797466 226 17531260469440246318
3545911 37 18201721769626968090
4214541 1 18202282472864308584
5104073 3 18339358540338730154
5281201 14 18343022169170573308
542803 24 15410895163263410850

>  <PUBCHEM_SHAPE_MULTIPOLES>  (1) 
383.13
15.13
1.36
1.3
13.55
0.39
-0.22
-2.57
2.66
0.25
-0.34
-2.21
-0.02
0.78

>  <PUBCHEM_SHAPE_SELFOVERLAP>  (1) 
825.379

>  <PUBCHEM_SHAPE_VOLUME>  (1) 
213.6

>  <PUBCHEM_COORDINATE_TYPE>  (1) 
2
5
10

$$$$
