47884
     RDKit          3D

 23 24  0  0  0  0  0  0  0  0999 V2000
    1.3782   -0.0239   -0.7200 O   0  0  0  0  0  0  0  0  0  0  0  0
   -2.6057   -2.7127   -0.2947 O   0  0  0  0  0  0  0  0  0  0  0  0
   -2.6862    1.7328    1.1338 O   0  0  0  0  0  0  0  0  0  0  0  0
    0.1773   -2.4919   -1.1171 O   0  0  0  0  0  0  0  0  0  0  0  0
   -0.4476    3.2433   -1.6138 O   0  0  0  0  0  0  0  0  0  0  0  0
    4.7796   -0.3266    0.6553 N   0  0  0  0  0  0  0  0  0  0  0  0
   -0.0238    2.0891    0.3965 N   0  0  0  0  0  0  0  0  0  0  0  0
    0.0714   -0.2047   -0.3601 C   0  0  0  0  0  0  0  0  0  0  0  0
   -2.6015   -0.5580    0.3841 C   0  0  0  0  0  0  0  0  0  0  0  0
   -0.6488    0.8514    0.2039 C   0  0  0  0  0  0  0  0  0  0  0  0
   -1.8507   -1.5841   -0.1803 C   0  0  0  0  0  0  0  0  0  0  0  0
   -1.9889    0.6916    0.5826 C   0  0  0  0  0  0  0  0  0  0  0  0
   -0.5177   -1.4557   -0.5666 C   0  0  0  0  0  0  0  0  0  0  0  0
    2.3625   -0.3058    0.2697 C   0  0  0  0  0  0  0  0  0  0  0  0
    3.7394   -0.0669   -0.3289 C   0  0  0  0  0  0  0  0  0  0  0  0
   -3.8887   -1.1080    0.6226 C   0  0  0  0  0  0  0  0  0  0  0  0
   -3.8378   -2.4141    0.1938 C   0  0  0  0  0  0  0  0  0  0  0  0
    6.1047   -0.0564    0.0923 C   0  0  0  0  0  0  0  0  0  0  0  0
    4.7065   -1.7091    1.1343 C   0  0  0  0  0  0  0  0  0  0  0  0
    0.0384    3.1687   -0.4898 C   0  0  0  0  0  0  0  0  0  0  0  0
   -3.3834    2.5863    0.2332 C   0  0  0  0  0  0  0  0  0  0  0  0
    0.3141   -3.6708   -0.3273 C   0  0  0  0  0  0  0  0  0  0  0  0
    0.8087    4.3252    0.0966 C   0  0  0  0  0  0  0  0  0  0  0  0
  1  8  1  0
  1 14  1  0
  2 11  1  0
  2 17  1  0
  3 12  1  0
  3 21  1  0
  4 13  1  0
  4 22  1  0
  5 20  2  0
  6 15  1  0
  6 18  1  0
  6 19  1  0
  7 10  1  0
  7 20  1  0
  8 10  1  0
  8 13  2  0
  9 11  2  0
  9 12  1  0
  9 16  1  0
 10 12  2  0
 11 13  1  0
 14 15  1  0
 16 17  2  0
 20 23  1  0
M  END
>  <PUBCHEM_COMPOUND_CID>  (1) 
47884

>  <PUBCHEM_CONFORMER_RMSD>  (1) 
0.8

>  <PUBCHEM_CONFORMER_DIVERSEORDER>  (1) 
1
35
11
12
31
14
3
23
13
16
4
27
6
34
8
24
22
19
26
9
33
29
15
32
7
2
30
28
21
18
5
36
20
17
10
25

>  <PUBCHEM_MMFF94_PARTIAL_CHARGES>  (1) 
25
1 -0.36
10 0.12
11 0.14
12 0.08
13 0.08
14 0.28
15 0.27
16 -0.15
17 -0.01
18 0.27
19 0.27
2 -0.28
20 0.57
21 0.28
22 0.28
23 0.06
28 0.15
29 0.37
3 -0.36
30 0.15
4 -0.36
5 -0.57
6 -0.81
7 -0.55
8 0.08

>  <PUBCHEM_EFFECTIVE_ROTOR_COUNT>  (1) 
8

>  <PUBCHEM_PHARMACOPHORE_FEATURES>  (1) 
9
1 1 acceptor
1 2 acceptor
1 3 acceptor
1 4 acceptor
1 5 acceptor
1 6 cation
1 7 donor
5 2 9 11 16 17 rings
6 8 9 10 11 12 13 rings

>  <PUBCHEM_HEAVY_ATOM_COUNT>  (1) 
23

>  <PUBCHEM_ATOM_DEF_STEREO_COUNT>  (1) 
0

>  <PUBCHEM_ATOM_UDEF_STEREO_COUNT>  (1) 
0

>  <PUBCHEM_BOND_DEF_STEREO_COUNT>  (1) 
0

>  <PUBCHEM_BOND_UDEF_STEREO_COUNT>  (1) 
0

>  <PUBCHEM_ISOTOPIC_ATOM_COUNT>  (1) 
0

>  <PUBCHEM_COMPONENT_COUNT>  (1) 
1

>  <PUBCHEM_CACTVS_TAUTO_COUNT>  (1) 
2

>  <PUBCHEM_CONFORMER_ID>  (1) 
0000BB0C00000001

>  <PUBCHEM_MMFF94_ENERGY>  (1) 
100.2569

>  <PUBCHEM_FEATURE_SELFOVERLAP>  (1) 
45.781

>  <PUBCHEM_SHAPE_FINGERPRINT>  (1) 
10967382 1 18123765162203313511
1100329 8 18122908891263626347
12035758 1 18337682906214830633
12236239 1 18113620105863691182
13140716 1 18412826871755938528
13540713 5 17768822205968472063
13941206 138 16963807178137214412
14142880 1 18200876171538060481
14178342 30 18200050459875103649
14420673 8 17907578022331598242
15042514 8 18337673010108377114
16945 1 18341068379830983687
17980427 23 18060144258266690373
1813 80 18337680814090561886
20600515 1 18201450219639326372
21029758 27 18336267950180599766
22182313 1 18126870213147479567
2297311 6 18341906190680148814
23366157 5 17829328338743700212
23402539 116 18271801358519639302
23419403 2 17773007925843328657
23559900 14 18195520617559730586
25147074 1 17770229572214669999
2748010 2 17981069439460266607
335352 9 18411420635692307279
3380486 145 18265065651946643441
350125 39 18268440194982370049
4409770 3 18043518413635414349
5104073 3 17909289193194532835
59554788 191 18409731789789666869
59755656 215 18053387591868246454
90316 7 18336548222666986720
9981440 41 17470997091367272264

>  <PUBCHEM_SHAPE_MULTIPOLES>  (1) 
434.02
8.4
4.76
0.96
12.7
3.23
-0.07
-3.68
2.62
-2.14
-0.87
0.11
0.13
-0.56

>  <PUBCHEM_SHAPE_SELFOVERLAP>  (1) 
908.419

>  <PUBCHEM_SHAPE_VOLUME>  (1) 
249.5

>  <PUBCHEM_COORDINATE_TYPE>  (1) 
2
5
10

$$$$
