47894
     RDKit          3D

 23 23  0  0  0  0  0  0  0  0999 V2000
   -0.9889    0.0750   -1.0318 O   0  0  0  0  0  0  0  0  0  0  0  0
   -5.0424   -3.1300    0.0689 O   0  0  0  0  0  0  0  0  0  0  0  0
   -5.4862    2.9757    0.2925 O   0  0  0  0  0  0  0  0  0  0  0  0
   -4.4020   -1.7554   -1.6230 O   0  0  0  0  0  0  0  0  0  0  0  0
   -4.3402    2.0584   -1.4417 O   0  0  0  0  0  0  0  0  0  0  0  0
   -3.4487    0.0537    0.2136 N   0  0  0  0  0  0  0  0  0  0  0  0
    0.0452    0.3133    1.0676 N   0  0  0  0  0  0  0  0  0  0  0  0
    5.5068   -0.8842    0.0005 C   0  0  0  0  0  0  0  0  0  0  0  0
    6.2963    0.3684   -0.3858 C   0  0  0  0  0  0  0  0  0  0  0  0
    4.0605   -0.5667    0.2823 C   0  0  0  0  0  0  0  0  0  0  0  0
    7.7524    0.0291   -0.7042 C   0  0  0  0  0  0  0  0  0  0  0  0
   -2.3253    0.6994    0.8775 C   0  0  0  0  0  0  0  0  0  0  0  0
    1.3838    0.0198    0.8055 C   0  0  0  0  0  0  0  0  0  0  0  0
    3.1226   -0.6092   -0.7494 C   0  0  0  0  0  0  0  0  0  0  0  0
    3.6599   -0.2308    1.5755 C   0  0  0  0  0  0  0  0  0  0  0  0
   -3.5282   -1.3601    0.5885 C   0  0  0  0  0  0  0  0  0  0  0  0
   -4.7037    0.7347    0.5397 C   0  0  0  0  0  0  0  0  0  0  0  0
   -1.0355    0.3234    0.1688 C   0  0  0  0  0  0  0  0  0  0  0  0
    1.7843   -0.3160   -0.4878 C   0  0  0  0  0  0  0  0  0  0  0  0
    2.3217    0.0625    1.8371 C   0  0  0  0  0  0  0  0  0  0  0  0
    8.5325    1.2632   -1.1282 C   0  0  0  0  0  0  0  0  0  0  0  0
   -4.3428   -2.0869   -0.4457 C   0  0  0  0  0  0  0  0  0  0  0  0
   -4.8222    1.9628   -0.3201 C   0  0  0  0  0  0  0  0  0  0  0  0
  1 18  2  0
  2 22  1  0
  3 23  1  0
  4 22  2  0
  5 23  2  0
  6 12  1  0
  6 16  1  0
  6 17  1  0
  7 13  1  0
  7 18  1  0
  8  9  1  0
  8 10  1  0
  9 11  1  0
 10 14  2  0
 10 15  1  0
 11 21  1  0
 12 18  1  0
 13 19  2  0
 13 20  1  0
 14 19  1  0
 15 20  2  0
 16 22  1  0
 17 23  1  0
M  END
>  <PUBCHEM_COMPOUND_CID>  (1) 
47894

>  <PUBCHEM_CONFORMER_RMSD>  (1) 
1

>  <PUBCHEM_CONFORMER_DIVERSEORDER>  (1) 
1
19
47
2
26
56
21
53
55
13
58
35
5
6
57
32
25
48
49
22
51
14
40
9
10
46
37
24
39
50
15
45
11
38
28
16
12
41
7
30
54
23
8
36
34
4
52
59
44
33
3
27
20
43
29
42
17
31
18

>  <PUBCHEM_MMFF94_PARTIAL_CHARGES>  (1) 
27
1 -0.57
10 -0.14
12 0.33
13 0.12
14 -0.15
15 -0.15
16 0.33
17 0.33
18 0.57
19 -0.15
2 -0.65
20 -0.15
22 0.66
23 0.66
3 -0.65
32 0.15
33 0.15
38 0.15
39 0.15
4 -0.57
40 0.37
44 0.5
45 0.5
5 -0.57
6 -0.81
7 -0.55
8 0.14

>  <PUBCHEM_EFFECTIVE_ROTOR_COUNT>  (1) 
11

>  <PUBCHEM_PHARMACOPHORE_FEATURES>  (1) 
11
1 1 acceptor
1 2 acceptor
1 21 hydrophobe
1 3 acceptor
1 4 acceptor
1 5 acceptor
1 6 cation
1 7 donor
3 2 4 22 anion
3 3 5 23 anion
6 10 13 14 15 19 20 rings

>  <PUBCHEM_HEAVY_ATOM_COUNT>  (1) 
23

>  <PUBCHEM_ATOM_DEF_STEREO_COUNT>  (1) 
0

>  <PUBCHEM_ATOM_UDEF_STEREO_COUNT>  (1) 
0

>  <PUBCHEM_BOND_DEF_STEREO_COUNT>  (1) 
0

>  <PUBCHEM_BOND_UDEF_STEREO_COUNT>  (1) 
0

>  <PUBCHEM_ISOTOPIC_ATOM_COUNT>  (1) 
0

>  <PUBCHEM_COMPONENT_COUNT>  (1) 
1

>  <PUBCHEM_CACTVS_TAUTO_COUNT>  (1) 
2

>  <PUBCHEM_CONFORMER_ID>  (1) 
0000BB1600000001

>  <PUBCHEM_MMFF94_ENERGY>  (1) 
48.8469

>  <PUBCHEM_FEATURE_SELFOVERLAP>  (1) 
55.937

>  <PUBCHEM_SHAPE_FINGERPRINT>  (1) 
10087517 78 17458625584268642820
11315181 36 18114463443871587887
11545043 162 18059850684008261747
11796584 16 18270116803964489202
12091667 2 18187089459519182634
12236239 1 17822293453259405698
13073987 5 11314301733181719168
13583140 156 17632850924066788655
13668630 136 14620500208144585373
13690498 29 18339920519587577631
1577012 14 18040715858081606074
17093844 174 18131344202652957690
17844677 252 18343020029501400121
18927931 339 17060621101107485645
21267235 1 15554727780808395960
21709351 56 18342171189328998412
21792961 116 17418101971436446350
220451 1 18409448055501870698
23081809 10 17821720629387265034
23402539 116 18113617872116440494
23559900 14 18059850649521773488
24771293 8 17458913734410274820
2838139 119 17458070387052684068
300161 21 17603585192757512528
328310 630 16950574298003478860
4073 2 18260275139887832290
4169191 19 16009324209746002836
5758199 1 16950289503465492720

>  <PUBCHEM_SHAPE_MULTIPOLES>  (1) 
434.02
20.07
2.16
1.35
27.46
0.07
-0.17
-4.1
6.75
-6.02
0.52
0.41
-0.03
-0.84

>  <PUBCHEM_SHAPE_SELFOVERLAP>  (1) 
877.361

>  <PUBCHEM_SHAPE_VOLUME>  (1) 
252.3

>  <PUBCHEM_COORDINATE_TYPE>  (1) 
2
5
10

$$$$
