47917
     RDKit          3D

 14 16  0  0  0  0  0  0  0  0999 V2000
    3.5104    0.8183   -0.3802 O   0  0  0  0  0  0  0  0  0  0  0  0
   -3.5107    0.8158    0.3822 O   0  0  0  0  0  0  0  0  0  0  0  0
    2.9426   -0.1260    0.4768 N   0  0  0  0  0  0  0  0  0  0  0  0
   -2.9421   -0.1234   -0.4798 N   0  0  0  0  0  0  0  0  0  0  0  0
    0.7191   -1.0480    1.0376 C   0  0  0  0  0  0  0  0  0  0  0  0
    1.0181    0.7697   -0.7459 C   0  0  0  0  0  0  0  0  0  0  0  0
   -0.7186   -1.0421   -1.0415 C   0  0  0  0  0  0  0  0  0  0  0  0
   -1.0188    0.7664    0.7512 C   0  0  0  0  0  0  0  0  0  0  0  0
    0.0001   -1.9236   -0.0045 C   0  0  0  0  0  0  0  0  0  0  0  0
   -0.2950   -0.1430    1.7607 C   0  0  0  0  0  0  0  0  0  0  0  0
    0.2950   -0.1339   -1.7606 C   0  0  0  0  0  0  0  0  0  0  0  0
   -0.0001    1.6467    0.0049 C   0  0  0  0  0  0  0  0  0  0  0  0
    1.6668   -0.1388    0.2787 C   0  0  0  0  0  0  0  0  0  0  0  0
   -1.6667   -0.1382   -0.2797 C   0  0  0  0  0  0  0  0  0  0  0  0
  1  3  1  0
  2  4  1  0
  3 13  2  3
  4 14  2  3
  5  9  1  0
  5 10  1  0
  5 13  1  0
  6 11  1  0
  6 12  1  0
  6 13  1  0
  7  9  1  0
  7 11  1  0
  7 14  1  0
  8 10  1  0
  8 12  1  0
  8 14  1  0
M  END
>  <PUBCHEM_COMPOUND_CID>  (1) 
47917

>  <PUBCHEM_CONFORMER_RMSD>  (1) 
0.4

>  <PUBCHEM_CONFORMER_DIVERSEORDER>  (1) 
1

>  <PUBCHEM_MMFF94_PARTIAL_CHARGES>  (1) 
12
1 -0.34
13 0.33
14 0.33
2 -0.34
27 0.4
28 0.4
3 -0.51
4 -0.51
5 0.06
6 0.06
7 0.06
8 0.06

>  <PUBCHEM_EFFECTIVE_ROTOR_COUNT>  (1) 
0.8

>  <PUBCHEM_PHARMACOPHORE_FEATURES>  (1) 
8
1 1 anion
1 2 anion
1 3 acceptor
1 4 acceptor
6 5 6 7 9 11 13 rings
6 5 6 8 10 12 13 rings
6 5 7 8 9 10 14 rings
6 6 7 8 11 12 14 rings

>  <PUBCHEM_HEAVY_ATOM_COUNT>  (1) 
14

>  <PUBCHEM_ATOM_DEF_STEREO_COUNT>  (1) 
0

>  <PUBCHEM_ATOM_UDEF_STEREO_COUNT>  (1) 
0

>  <PUBCHEM_BOND_DEF_STEREO_COUNT>  (1) 
0

>  <PUBCHEM_BOND_UDEF_STEREO_COUNT>  (1) 
0

>  <PUBCHEM_ISOTOPIC_ATOM_COUNT>  (1) 
0

>  <PUBCHEM_COMPONENT_COUNT>  (1) 
1

>  <PUBCHEM_CACTVS_TAUTO_COUNT>  (1) 
3

>  <PUBCHEM_CONFORMER_ID>  (1) 
0000BB2D00000001

>  <PUBCHEM_MMFF94_ENERGY>  (1) 
36.9492

>  <PUBCHEM_FEATURE_SELFOVERLAP>  (1) 
53.354

>  <PUBCHEM_SHAPE_FINGERPRINT>  (1) 
10219947 1 16660363671049822213
10702982 57 18337387244248594479
10863032 1 18411980290646390906
10948715 1 18410857659151625220
12138202 97 17346598607550230614
12423570 1 12749794397511363690
12491281 212 18410579499937107592
13024252 1 17603864537667743008
14817 1 10126825288106133410
14993402 34 18341889714299442909
15557651 10 17241586455357563540
15775835 57 18410577287981542117
16945 1 18338503196974002885
21501502 16 15481007621840971579
22344851 12 15234643805206944939
23559900 14 16487253288456943794
369184 2 18335133232964328808
5084963 1 17917152680621268642
528886 8 18410283726987803755
68250623 7 17903917755851660642

>  <PUBCHEM_SHAPE_MULTIPOLES>  (1) 
266.41
3.65
1.43
1.38
0
0.2
0
-1.05
0
0
0
0
0.15
-0.35

>  <PUBCHEM_SHAPE_SELFOVERLAP>  (1) 
584.719

>  <PUBCHEM_SHAPE_VOLUME>  (1) 
139.4

>  <PUBCHEM_COORDINATE_TYPE>  (1) 
2
5
10

$$$$
