47945
     RDKit          3D

 19 19  0  0  1  0  0  0  0  0999 V2000
   -2.5442    0.2154    2.2272 O   0  0  0  0  0  0  0  0  0  0  0  0
   -1.0233    1.4453    0.1006 O   0  0  0  0  0  0  0  0  0  0  0  0
    1.9404   -1.0746   -1.8606 O   0  0  0  0  0  0  0  0  0  0  0  0
    3.7594    2.2625   -0.1329 O   0  0  0  0  0  0  0  0  0  0  0  0
   -0.7483   -2.0797   -0.2356 C   0  0  0  0  0  0  0  0  0  0  0  0
   -1.0823   -1.2856    1.0477 C   0  0  0  0  0  0  0  0  0  0  0  0
   -2.3395   -0.4004    0.9579 C   0  0  0  0  0  0  0  0  0  0  0  0
   -2.2065    0.6768   -0.1408 C   0  0  0  0  0  0  0  0  0  0  0  0
   -3.4065    1.6473   -0.2621 C   0  0  0  0  0  0  0  0  0  0  0  0
    0.5641   -2.8907   -0.0974 C   0  0  0  0  0  0  0  0  0  0  0  0
   -1.8798   -3.0382   -0.6265 C   0  0  0  0  0  0  0  0  0  0  0  0
    1.7853   -2.0625    0.3210 C   0  0  0  0  0  0  0  0  0  0  0  0
   -4.7184    0.9227   -0.5680 C   0  0  0  0  0  0  0  0  0  0  0  0
   -3.1430    2.6995   -1.3484 C   0  0  0  0  0  0  0  0  0  0  0  0
    2.1628   -0.9496   -0.6561 C   0  0  0  0  0  0  0  0  0  0  0  0
    2.8144    0.2657   -0.1371 C   0  0  0  0  0  0  0  0  0  0  0  0
    3.1463    0.5467    1.1831 C   0  0  0  0  0  0  0  0  0  0  0  0
    3.1899    1.3073   -0.9136 C   0  0  0  0  0  0  0  0  0  0  0  0
    3.7291    1.7920    1.1416 C   0  0  0  0  0  0  0  0  0  0  0  0
  1  7  1  0
  2  8  1  0
  3 15  2  0
  4 18  1  0
  4 19  1  0
  5  6  1  0
  5 10  1  0
  5 11  1  0
  6  7  1  0
  7  8  1  0
  8  9  1  0
  9 13  1  0
  9 14  1  0
 10 12  1  0
 12 15  1  0
 15 16  1  0
 16 17  1  0
 16 18  2  0
 17 19  2  0
M  END
>  <PUBCHEM_COMPOUND_CID>  (1) 
47945

>  <PUBCHEM_CONFORMER_RMSD>  (1) 
1

>  <PUBCHEM_CONFORMER_DIVERSEORDER>  (1) 
1
398
488
391
200
354
148
39
366
68
289
259
6
375
242
333
254
181
146
7
229
77
21
94
345
96
220
275
319
404
234
139
389
182
252
54
111
238
36
350
125
371
204
385
158
334
469
435
136
317
466
22
429
27
269
374
318
8
19
120
475
169
447
41
163
166
394
20
250
490
209
496
329
287
336
484
368
300
193
495
91
419
130
25
188
106
480
486
115
271
262
294
461
102
257
128
70
276
362
327
99
129
312
212
67
355
28
286
93
206
337
246
412
228
441
473
384
478
357
15
487
78
145
33
409
225
243
459
416
408
159
424
11
183
297
248
30
37
373
413
208
76
121
150
314
369
31
184
386
227
49
236
258
187
278
351
203
265
338
47
308
5
464
425
160
235
194
349
414
395
142
164
153
261
448
379
277
241
131
456
223
118
104
52
358
420
90
191
161
444
107
56
217
426
353
151
210
198
432
268
61
222
244
109
360
442
85
344
341
285
87
307
438
105
119
13
264
2
370
298
367
197
381
219
73
18
316
450
460
172
453
332
249
309
215
330
302
251
428
422
62
292
356
436
472
127
421
270
55
201
282
10
177
443
359
48
63
380
71
112
17
60
103
449
393
410
83
144
84
147
205
423
325
281
439
82
38
304
133
34
301
482
451
255
321
306
372
479
331
280
402
167
388
156
157
137
361
322
263
92
310
274
406
173
72
396
266
481
462
174
446
3
405
126
291
397
493
57
335
284
101
303
387
40
492
232
80
491
134
434
390
44
66
383
12
343
195
295
135
65
46
190
364
352
377
138
296
245
23
74
463
433
179
477
95
279
226
154
214
64
9
98
474
97
165
32
53
143
239
100
320
454
79
14
162
340
483
256
221
471
24
207
233
452
407
237
75
108
418
141
152
494
81
382
458
272
231
399
196
240
218
29
313
401
213
176
363
202
400
437
467
4
149
122
427
468
51
283
50
43
89
288
323
267
88
186
69
123
305
347
168
185
117
328
273
230
42
440
430
293
485
211
180
411
378
170
199
247
348
124
178
216
260
489
59
415
465
326
189
113
35
392
457
171
417
45
445
58
455
224
339
116
403
155
376
192
132
290
470
140
431
175
324
110
315
114
16
26
365
86
476
299
311
346
342
253

>  <PUBCHEM_MMFF94_PARTIAL_CHARGES>  (1) 
17
1 -0.68
12 0.06
15 0.6
16 -0.09
17 -0.15
18 -0.01
19 -0.01
2 -0.68
3 -0.57
39 0.4
4 -0.28
40 0.4
41 0.15
42 0.15
43 0.15
7 0.28
8 0.28

>  <PUBCHEM_EFFECTIVE_ROTOR_COUNT>  (1) 
8

>  <PUBCHEM_PHARMACOPHORE_FEATURES>  (1) 
10
1 1 acceptor
1 1 donor
1 11 hydrophobe
1 2 acceptor
1 2 donor
1 3 acceptor
1 4 acceptor
3 9 13 14 hydrophobe
4 5 6 10 12 hydrophobe
5 4 16 17 18 19 rings

>  <PUBCHEM_HEAVY_ATOM_COUNT>  (1) 
19

>  <PUBCHEM_ATOM_DEF_STEREO_COUNT>  (1) 
0

>  <PUBCHEM_ATOM_UDEF_STEREO_COUNT>  (1) 
3

>  <PUBCHEM_BOND_DEF_STEREO_COUNT>  (1) 
0

>  <PUBCHEM_BOND_UDEF_STEREO_COUNT>  (1) 
0

>  <PUBCHEM_ISOTOPIC_ATOM_COUNT>  (1) 
0

>  <PUBCHEM_COMPONENT_COUNT>  (1) 
1

>  <PUBCHEM_CACTVS_TAUTO_COUNT>  (1) 
2

>  <PUBCHEM_CONFORMER_ID>  (1) 
0000BB4900000001

>  <PUBCHEM_MMFF94_ENERGY>  (1) 
30.0124

>  <PUBCHEM_FEATURE_SELFOVERLAP>  (1) 
50.783

>  <PUBCHEM_SHAPE_FINGERPRINT>  (1) 
10498660 4 18339929310847464852
10670039 82 17833002915937961396
10871710 139 17975420435777858300
11140007 195 13768481973390598864
11370993 70 18409157797016495372
11725454 13 17604974941490863599
12077114 3 18333730243078854552
13134695 92 17686895016832559822
14123250 116 17703520942819801715
14251764 30 13254507730231717525
14251764 38 18261949627203274237
14386348 128 18270139988086566066
14468879 13 18259706688043933265
14957384 54 18187916301117221672
17834072 32 18337955713572958476
18186145 218 18197784306138491437
18219364 16 18340221716489473083
19930381 70 18339073779580740093
20567600 299 17691113843053519717
21524375 3 18262521364564740115
21639500 275 18124595284639363083
21864079 5 17896893247056514676
22096605 113 18338796689707252587
22749437 52 18409727335465585952
23227448 37 18268988855278378141
23503958 25 18115611290723553333
23557571 272 17841444918259150534
238 59 18197499519588871823
3187 122 17751087014455117617
43658 37 18411130304060450389
469060 322 17975144445823129227
495365 180 18194107526344114805
5262128 65 17343517599981109606
526903 126 18343016735424845103
633830 44 17773608122190535793
7808743 9 18191032403059673948
8050 44 18412269427791958250
81228 2 17980218687358135610

>  <PUBCHEM_SHAPE_MULTIPOLES>  (1) 
367.53
7.75
3.48
1.42
0.95
1.32
0.28
-6.52
-0.22
0.48
-0.83
0.08
-0.15
1.03

>  <PUBCHEM_SHAPE_SELFOVERLAP>  (1) 
731.597

>  <PUBCHEM_SHAPE_VOLUME>  (1) 
219.8

>  <PUBCHEM_COORDINATE_TYPE>  (1) 
2
5
10

$$$$
