47953
     RDKit          3D

 13 15  0  0  1  0  0  0  0  0999 V2000
   -3.3476   -0.3118   -0.9501 N   0  0  0  0  0  0  0  0  0  0  0  0
   -1.2859    0.3476   -0.0347 C   0  0  0  0  0  0  0  0  0  0  0  0
   -2.1169   -0.2227    1.0502 C   0  0  0  0  0  0  0  0  0  0  0  0
   -1.8767    1.2641    1.0051 C   0  0  0  0  0  0  0  0  0  0  0  0
   -1.9766    0.0615   -1.3291 C   0  0  0  0  0  0  0  0  0  0  0  0
   -3.3132   -0.8559    0.4158 C   0  0  0  0  0  0  0  0  0  0  0  0
    0.1900    0.1728   -0.0293 C   0  0  0  0  0  0  0  0  0  0  0  0
    1.0278    1.2752   -0.2131 C   0  0  0  0  0  0  0  0  0  0  0  0
    0.7455   -1.0951    0.1596 C   0  0  0  0  0  0  0  0  0  0  0  0
    2.4130    1.1109   -0.2082 C   0  0  0  0  0  0  0  0  0  0  0  0
    2.1306   -1.2593    0.1646 C   0  0  0  0  0  0  0  0  0  0  0  0
    2.9644   -0.1563   -0.0193 C   0  0  0  0  0  0  0  0  0  0  0  0
    4.4456   -0.3309   -0.0114 C   0  0  0  0  0  0  0  0  0  0  0  0
  1  5  1  0
  1  6  1  0
  2  3  1  0
  2  4  1  0
  2  5  1  0
  2  7  1  0
  3  4  1  0
  3  6  1  0
  7  8  2  0
  7  9  1  0
  8 10  1  0
  9 11  2  0
 10 12  2  0
 11 12  1  0
 12 13  1  0
M  END
>  <PUBCHEM_COMPOUND_CID>  (1) 
47953

>  <PUBCHEM_CONFORMER_RMSD>  (1) 
0.6

>  <PUBCHEM_CONFORMER_DIVERSEORDER>  (1) 
1
7
6
3
4
2
8
5

>  <PUBCHEM_MMFF94_PARTIAL_CHARGES>  (1) 
21
1 -0.9
10 -0.15
11 -0.15
12 -0.14
13 0.14
14 0.1
15 0.1
16 0.1
2 -0.06
21 0.36
22 0.15
23 0.15
24 0.15
25 0.15
3 -0.19
4 -0.2
5 0.37
6 0.37
7 -0.03
8 -0.15
9 -0.15

>  <PUBCHEM_EFFECTIVE_ROTOR_COUNT>  (1) 
1.8

>  <PUBCHEM_PHARMACOPHORE_FEATURES>  (1) 
4
1 1 cation
1 1 donor
6 1 2 3 4 5 6 rings
6 7 8 9 10 11 12 rings

>  <PUBCHEM_HEAVY_ATOM_COUNT>  (1) 
13

>  <PUBCHEM_ATOM_DEF_STEREO_COUNT>  (1) 
0

>  <PUBCHEM_ATOM_UDEF_STEREO_COUNT>  (1) 
2

>  <PUBCHEM_BOND_DEF_STEREO_COUNT>  (1) 
0

>  <PUBCHEM_BOND_UDEF_STEREO_COUNT>  (1) 
0

>  <PUBCHEM_ISOTOPIC_ATOM_COUNT>  (1) 
0

>  <PUBCHEM_COMPONENT_COUNT>  (1) 
1

>  <PUBCHEM_CACTVS_TAUTO_COUNT>  (1) 
1

>  <PUBCHEM_CONFORMER_ID>  (1) 
0000BB5100000001

>  <PUBCHEM_MMFF94_ENERGY>  (1) 
37.399

>  <PUBCHEM_FEATURE_SELFOVERLAP>  (1) 
20.297

>  <PUBCHEM_SHAPE_FINGERPRINT>  (1) 
10219947 1 18334577949590827916
11543360 7 15502956189536197894
12032990 46 18336271163233037430
124424 183 17022895736198342280
12500047 106 15647048278829322506
12932764 1 17060334102565429674
13024252 1 13479136791891933425
13581323 91 16559030489074492220
14144814 61 18411702062939119842
14993402 34 18413106165157872398
15219456 202 17822009856183995021
15309172 13 18411423907750901082
15775835 57 17418097589615106819
16945 1 18410860970856052194
18175812 5 17530966916408668822
19026448 4 15357706288338337936
19422 9 18059864943436606718
200 152 18342168982011077447
20201158 50 18040997332188112562
20279233 1 17458063759369279370
20645477 70 18261946336963010887
23402539 116 17418368090924028460
23559900 14 14273739560625439724
3248919 1 18408326570673455080
369184 2 18410858754805986313
5084963 1 17822579394559128560
57812782 119 17821725061234312314
77492 1 17989490735765188517
8030462 33 18342178855776978384
8809292 202 17895483638352299618

>  <PUBCHEM_SHAPE_MULTIPOLES>  (1) 
262.55
6.38
1.27
0.99
2.78
0.11
-0.09
-1.12
-0.18
0.26
0.13
-0.83
0.06
-0.2

>  <PUBCHEM_SHAPE_SELFOVERLAP>  (1) 
569.135

>  <PUBCHEM_SHAPE_VOLUME>  (1) 
147.5

>  <PUBCHEM_COORDINATE_TYPE>  (1) 
2
5
10

$$$$
