47961
     RDKit          3D

 21 22  0  0  1  0  0  0  0  0999 V2000
    1.2481    1.4951   -0.6618 O   0  0  0  0  0  0  0  0  0  0  0  0
    2.0750    2.0032    1.4161 O   0  0  0  0  0  0  0  0  0  0  0  0
    1.4072   -0.9249   -1.2085 O   0  0  0  0  0  0  0  0  0  0  0  0
   -2.8158    0.4061   -0.1227 N   0  0  0  0  0  0  0  0  0  0  0  0
   -2.5519   -0.1765    1.2119 C   0  0  0  0  0  0  0  0  0  0  0  0
   -3.6092   -0.4787   -1.0028 C   0  0  0  0  0  0  0  0  0  0  0  0
   -3.8755   -0.5385    1.9064 C   0  0  0  0  0  0  0  0  0  0  0  0
   -4.9425   -0.8538   -0.3268 C   0  0  0  0  0  0  0  0  0  0  0  0
   -4.7400   -1.4581    1.0557 C   0  0  0  0  0  0  0  0  0  0  0  0
   -1.5885    0.8972   -0.7500 C   0  0  0  0  0  0  0  0  0  0  0  0
   -1.5802   -1.3681    1.2215 C   0  0  0  0  0  0  0  0  0  0  0  0
   -3.9320    0.1646   -2.3606 C   0  0  0  0  0  0  0  0  0  0  0  0
   -0.9662    2.0023    0.0976 C   0  0  0  0  0  0  0  0  0  0  0  0
    0.3029    2.5493   -0.5419 C   0  0  0  0  0  0  0  0  0  0  0  0
    2.0980    1.3145    0.4013 C   0  0  0  0  0  0  0  0  0  0  0  0
    3.0214    0.2048    0.1599 C   0  0  0  0  0  0  0  0  0  0  0  0
    2.6425   -0.8723   -0.6350 C   0  0  0  0  0  0  0  0  0  0  0  0
    4.2852    0.2445    0.7403 C   0  0  0  0  0  0  0  0  0  0  0  0
    3.5368   -1.9205   -0.8518 C   0  0  0  0  0  0  0  0  0  0  0  0
    5.1794   -0.8039    0.5235 C   0  0  0  0  0  0  0  0  0  0  0  0
    4.8052   -1.8863   -0.2724 C   0  0  0  0  0  0  0  0  0  0  0  0
  1 14  1  0
  1 15  1  0
  2 15  2  0
  3 17  1  0
  4  5  1  0
  4  6  1  0
  4 10  1  0
  5  7  1  0
  5 11  1  0
  6  8  1  0
  6 12  1  0
  7  9  1  0
  8  9  1  0
 10 13  1  0
 13 14  1  0
 15 16  1  0
 16 17  2  0
 16 18  1  0
 17 19  1  0
 18 20  2  0
 19 21  2  0
 20 21  1  0
M  END
>  <PUBCHEM_COMPOUND_CID>  (1) 
47961

>  <PUBCHEM_CONFORMER_RMSD>  (1) 
1

>  <PUBCHEM_CONFORMER_DIVERSEORDER>  (1) 
21
47
89
645
8
393
382
297
481
5
710
318
567
24
585
94
649
409
777
142
586
230
267
313
46
711
79
447
95
192
516
112
31
328
2
19
767
125
665
623
283
403
136
27
437
76
52
506
119
562
720
96
103
574
667
102
269
273
68
272
168
707
421
460
54
228
315
786
368
44
223
619
32
67
41
179
309
371
219
343
99
336
128
42
7
402
205
376
579
57
489
188
227
605
123
327
59
14
453
4
193
20
439
157
615
127
226
636
425
83
69
385
37
151
60
347
25
10
35
231
181
787
644
470
650
15
330
600
172
1
40
254
251
124
547
36
13
39
772
258
18
6
150
232
38
662
307
118
209
16
274
77

>  <PUBCHEM_MMFF94_PARTIAL_CHARGES>  (1) 
20
1 -0.43
10 0.27
14 0.28
15 0.63
16 0.09
17 0.08
18 -0.15
19 -0.15
2 -0.57
20 -0.15
21 -0.15
3 -0.53
4 -0.81
42 0.15
43 0.15
44 0.15
45 0.15
46 0.45
5 0.27
6 0.27

>  <PUBCHEM_EFFECTIVE_ROTOR_COUNT>  (1) 
7.2

>  <PUBCHEM_PHARMACOPHORE_FEATURES>  (1) 
5
1 2 acceptor
1 3 donor
1 4 cation
6 16 17 18 19 20 21 rings
6 4 5 6 7 8 9 rings

>  <PUBCHEM_HEAVY_ATOM_COUNT>  (1) 
21

>  <PUBCHEM_ATOM_DEF_STEREO_COUNT>  (1) 
0

>  <PUBCHEM_ATOM_UDEF_STEREO_COUNT>  (1) 
2

>  <PUBCHEM_BOND_DEF_STEREO_COUNT>  (1) 
0

>  <PUBCHEM_BOND_UDEF_STEREO_COUNT>  (1) 
0

>  <PUBCHEM_ISOTOPIC_ATOM_COUNT>  (1) 
0

>  <PUBCHEM_COMPONENT_COUNT>  (1) 
1

>  <PUBCHEM_CACTVS_TAUTO_COUNT>  (1) 
4

>  <PUBCHEM_CONFORMER_ID>  (1) 
0000BB5900000015

>  <PUBCHEM_MMFF94_ENERGY>  (1) 
42.0577

>  <PUBCHEM_FEATURE_SELFOVERLAP>  (1) 
25.371

>  <PUBCHEM_SHAPE_FINGERPRINT>  (1) 
11796584 16 17531236215401236178
12363563 72 18334304153525187996
12553582 1 18271537450074869660
12596602 18 16056870360589847786
12633257 1 16056882450743197737
12714826 92 17240773886611387641
13103583 49 16773801363872002202
13402501 40 18334017198154818858
13533116 47 18129665330560703241
13544653 18 18342458114861904620
14251751 18 17458628955543396755
14251757 17 18040708182400139233
14251764 30 17058392296970989838
14341114 328 15841551907115386354
14386348 63 18260829310516026323
15352361 1 18408325483983581522
16752209 62 16732977652594881171
17357779 13 18409162190846952652
17870717 6 17385442111977607735
1813 80 18271540735582712108
193927 3 18333740108355112656
19433438 48 17561361764312562807
200 152 18059849563116508757
20261772 1 18060413621403809278
20403669 9 18334297556545228802
20645477 70 18335695095858806452
20871999 31 16443066092820174485
21781051 124 16081659980442295779
23402539 116 18410854317688038090
23559900 14 17458344190879940573
3737641 26 17630059161202482430
5104073 3 18127966417845253274
7064713 232 16774078466440377247
7288768 16 15548215575385536520
9709674 26 18334572481781371317
9862886 166 17748828527382731178

>  <PUBCHEM_SHAPE_MULTIPOLES>  (1) 
409.58
11.45
2.22
1.61
1.29
0.87
-0.19
-6.62
0.18
1.06
0.06
-1.75
-0.15
1.58

>  <PUBCHEM_SHAPE_SELFOVERLAP>  (1) 
842.164

>  <PUBCHEM_SHAPE_VOLUME>  (1) 
235.2

>  <PUBCHEM_COORDINATE_TYPE>  (1) 
2
5
10

$$$$
