47967
     RDKit          3D

 20 22  0  0  0  0  0  0  0  0999 V2000
   -5.6036   -1.4992    1.1646 O   0  0  0  0  0  0  0  0  0  0  0  0
    4.2908   -1.7244   -1.0405 O   0  0  0  0  0  0  0  0  0  0  0  0
    5.7365   -0.6571    0.5654 O   0  0  0  0  0  0  0  0  0  0  0  0
   -2.0127    2.3799   -0.3980 O   0  0  0  0  0  0  0  0  0  0  0  0
   -3.9126    0.1299   -0.4443 N   0  0  0  0  0  0  0  0  0  0  0  0
   -3.4318   -0.4795    0.8035 C   0  0  0  0  0  0  0  0  0  0  0  0
   -4.9682   -0.7029   -1.0371 C   0  0  0  0  0  0  0  0  0  0  0  0
   -4.5993   -0.6806    1.7654 C   0  0  0  0  0  0  0  0  0  0  0  0
   -6.0997   -0.8977   -0.0319 C   0  0  0  0  0  0  0  0  0  0  0  0
   -2.8119    0.3209   -1.3863 C   0  0  0  0  0  0  0  0  0  0  0  0
   -1.7731    1.2318   -0.7632 C   0  0  0  0  0  0  0  0  0  0  0  0
   -0.4109    0.6346   -0.6200 C   0  0  0  0  0  0  0  0  0  0  0  0
    1.9591    0.8372    0.1237 C   0  0  0  0  0  0  0  0  0  0  0  0
    0.5875    1.3401   -0.0702 C   0  0  0  0  0  0  0  0  0  0  0  0
    3.6833   -0.6825   -0.4101 C   0  0  0  0  0  0  0  0  0  0  0  0
    4.5087   -0.0732    0.5072 C   0  0  0  0  0  0  0  0  0  0  0  0
    2.3922   -0.2470   -0.6267 C   0  0  0  0  0  0  0  0  0  0  0  0
    2.7851    1.4661    1.0583 C   0  0  0  0  0  0  0  0  0  0  0  0
    4.0886    1.0055    1.2583 C   0  0  0  0  0  0  0  0  0  0  0  0
    5.5919   -1.7019   -0.4183 C   0  0  0  0  0  0  0  0  0  0  0  0
  1  8  1  0
  1  9  1  0
  2 15  1  0
  2 20  1  0
  3 16  1  0
  3 20  1  0
  4 11  2  0
  5  6  1  0
  5  7  1  0
  5 10  1  0
  6  8  1  0
  7  9  1  0
 10 11  1  0
 11 12  1  0
 12 14  2  0
 13 14  1  0
 13 17  2  0
 13 18  1  0
 15 16  2  0
 15 17  1  0
 16 19  1  0
 18 19  2  0
M  END
>  <PUBCHEM_COMPOUND_CID>  (1) 
47967

>  <PUBCHEM_CONFORMER_RMSD>  (1) 
0.8

>  <PUBCHEM_CONFORMER_DIVERSEORDER>  (1) 
1
10
40
38
36
29
37
5
12
21
9
17
41
27
31
4
43
13
42
34
14
8
2
28
6
22
26
7
30
11
35
15
25
3
18
23
39
20
33
16
19
32
24

>  <PUBCHEM_MMFF94_PARTIAL_CHARGES>  (1) 
25
1 -0.56
10 0.33
11 0.49
12 -0.14
13 0.03
14 -0.18
15 0.08
16 0.08
17 -0.15
18 -0.15
19 -0.15
2 -0.36
20 0.56
3 -0.36
31 0.15
32 0.15
33 0.15
34 0.15
35 0.15
4 -0.57
5 -0.81
6 0.27
7 0.27
8 0.28
9 0.28

>  <PUBCHEM_EFFECTIVE_ROTOR_COUNT>  (1) 
5.8

>  <PUBCHEM_PHARMACOPHORE_FEATURES>  (1) 
8
1 1 acceptor
1 2 acceptor
1 3 acceptor
1 4 acceptor
1 5 cation
5 2 3 15 16 20 rings
6 1 5 6 7 8 9 rings
6 13 15 16 17 18 19 rings

>  <PUBCHEM_HEAVY_ATOM_COUNT>  (1) 
20

>  <PUBCHEM_ATOM_DEF_STEREO_COUNT>  (1) 
0

>  <PUBCHEM_ATOM_UDEF_STEREO_COUNT>  (1) 
0

>  <PUBCHEM_BOND_DEF_STEREO_COUNT>  (1) 
0

>  <PUBCHEM_BOND_UDEF_STEREO_COUNT>  (1) 
1

>  <PUBCHEM_ISOTOPIC_ATOM_COUNT>  (1) 
0

>  <PUBCHEM_COMPONENT_COUNT>  (1) 
1

>  <PUBCHEM_CACTVS_TAUTO_COUNT>  (1) 
2

>  <PUBCHEM_CONFORMER_ID>  (1) 
0000BB5F00000001

>  <PUBCHEM_MMFF94_ENERGY>  (1) 
48.6745

>  <PUBCHEM_FEATURE_SELFOVERLAP>  (1) 
40.754

>  <PUBCHEM_SHAPE_FINGERPRINT>  (1) 
10014705 185 9295280655863121533
10498660 4 9223228554987943604
10693767 8 14491015071313466256
10912923 1 16343410808322355781
11089746 13 8358261428019318476
11128504 68 13334733544311604309
11545043 162 18410006598523661076
11552529 35 16843023471983040999
11796584 16 17603860135452839483
12107183 9 16555400859526387467
12236239 1 15985103033199824802
12403259 118 14836406947757990681
12596602 18 16702300178383940267
12633257 1 17346598599097394021
12670546 177 14129055919840911403
13103583 49 17060341833522354129
13402501 40 18334862714064861083
13533116 47 17988924504398672626
13685833 64 18261114110462185875
13914758 101 17989487395404362337
13955234 65 18271518814871577592
14123256 34 17749398113287647363
1420 363 18333448746353091647
14251732 14 17894644642687688246
14251757 5 15720258216835007395
14252887 29 18341888610862314192
14341114 176 17917710206189413076
14341114 328 16271932644449038523
14386348 63 18333447655637139755
14455015 7 18411699876653008084
14528608 73 13623533467386439662
146900 427 17346026892333754584
14848160 23 18335135414755019619
14849402 71 16844713374854039496
15183329 4 14706920748904701719
15238133 3 14836409150675267306
15880784 105 18131066078214987299
17844677 252 18343021085989910780
17870717 6 17313101956557685399
1813 80 18272664453815155389
18222031 100 17385441025034455596
193927 3 18260553320202224157
20281389 69 11743838062290355094
20432913 95 18272931626381360709
20621476 21 18260276251930849339
21054139 6 16081085987584253906
21065198 48 16916783028368693173
21065201 7 18115576046512546972
21150785 3 16950288408169639582
21267235 1 17917993833672629126
212916 134 13470687044584342301
21623969 137 18342738516202377390
23402655 69 12324243854119949544
23503953 91 15985099730064181780
23559900 14 17386285514558142397
239999 70 18113896100477924080
268830 7 15338537423873358968
2767999 5 10879994649000385747
2838139 119 9007063435101298219
3004659 81 16877942767348505893
3089732 80 18335425663976045394
312423 11 18261685825758751404
312425 54 18131075948150340011
314173 85 18259985985620125341
5104073 3 18059002879371391296
5352402 22 18273219685553453278
5758199 1 17273967112458153472
59755656 215 18040713654231250683
59755656 520 18047465622389452605
7495541 125 18409165511505609772
8863177 126 18412265060222116470
960060 61 14201396084193523332

>  <PUBCHEM_SHAPE_MULTIPOLES>  (1) 
383.13
15.59
1.73
1.33
4.72
0.24
-0.29
-8.78
-2.8
-0.9
0.1
1.11
-0.08
1.74

>  <PUBCHEM_SHAPE_SELFOVERLAP>  (1) 
818.082

>  <PUBCHEM_SHAPE_VOLUME>  (1) 
212.6

>  <PUBCHEM_COORDINATE_TYPE>  (1) 
2
5
10

$$$$
