47972
     RDKit          3D

 23 24  0  0  0  0  0  0  0  0999 V2000
    4.3950    2.8129   -0.9425 Cl  0  0  0  0  0  0  0  0  0  0  0  0
   -7.0268   -0.3313    0.3262 Cl  0  0  0  0  0  0  0  0  0  0  0  0
    1.4008   -0.9189    1.9983 S   0  0  0  0  0  0  0  0  0  0  0  0
    1.2384    3.8060   -0.6482 O   0  0  0  0  0  0  0  0  0  0  0  0
   -4.6421    0.8422   -1.1559 O   0  0  0  0  0  0  0  0  0  0  0  0
    1.5765    1.8239    0.5736 N   0  0  0  0  0  0  0  0  0  0  0  0
   -3.3873   -0.6906    0.1153 N   0  0  0  0  0  0  0  0  0  0  0  0
    0.3444    1.1691    0.4759 C   0  0  0  0  0  0  0  0  0  0  0  0
    0.1244   -0.0735    1.0701 C   0  0  0  0  0  0  0  0  0  0  0  0
   -2.1430   -0.0709    0.2359 C   0  0  0  0  0  0  0  0  0  0  0  0
   -1.1192   -0.6935    0.9501 C   0  0  0  0  0  0  0  0  0  0  0  0
   -0.6794    1.7919   -0.2382 C   0  0  0  0  0  0  0  0  0  0  0  0
   -1.9230    1.1718   -0.3582 C   0  0  0  0  0  0  0  0  0  0  0  0
    2.1823   -1.8760    0.7096 C   0  0  0  0  0  0  0  0  0  0  0  0
    1.9392    3.0635    0.0346 C   0  0  0  0  0  0  0  0  0  0  0  0
    3.2477   -1.3362   -0.0081 C   0  0  0  0  0  0  0  0  0  0  0  0
    1.7248   -3.1610    0.4249 C   0  0  0  0  0  0  0  0  0  0  0  0
   -4.5253   -0.2235   -0.5566 C   0  0  0  0  0  0  0  0  0  0  0  0
    3.8583   -2.0842   -1.0147 C   0  0  0  0  0  0  0  0  0  0  0  0
    2.3354   -3.9092   -0.5817 C   0  0  0  0  0  0  0  0  0  0  0  0
    3.4021   -3.3708   -1.3014 C   0  0  0  0  0  0  0  0  0  0  0  0
    3.3665    3.4396    0.3554 C   0  0  0  0  0  0  0  0  0  0  0  0
   -5.6898   -1.1811   -0.4644 C   0  0  0  0  0  0  0  0  0  0  0  0
  1 22  1  0
  2 23  1  0
  3  9  1  0
  3 14  1  0
  4 15  2  0
  5 18  2  0
  6  8  1  0
  6 15  1  0
  7 10  1  0
  7 18  1  0
  8  9  2  0
  8 12  1  0
  9 11  1  0
 10 11  2  0
 10 13  1  0
 12 13  2  0
 14 16  2  0
 14 17  1  0
 15 22  1  0
 16 19  1  0
 17 20  2  0
 18 23  1  0
 19 21  2  0
 20 21  1  0
M  END
>  <PUBCHEM_COMPOUND_CID>  (1) 
47972

>  <PUBCHEM_CONFORMER_RMSD>  (1) 
0.8

>  <PUBCHEM_CONFORMER_DIVERSEORDER>  (1) 
1
11
85
61
89
66
63
44
82
18
73
42
23
43
88
71
67
52
90
5
22
6
17
86
72
7
75
21
74
81
93
12
77
15
57
59
91
8
69
65
51
9
2
87
84
96
24
39
47
76
50
54
36
53
49
46
64
45
97
32
56
37
4
26
30
13
25
48
34
83
20
10
41
55
38
94
79
28
95
3
29
70
33
14
92
80
16
27
40
19
60
35
58
78
68
31
62

>  <PUBCHEM_MMFF94_PARTIAL_CHARGES>  (1) 
33
1 -0.29
10 0.12
11 -0.15
12 -0.15
13 -0.15
14 0.1
15 0.57
16 -0.15
17 -0.15
18 0.57
19 -0.15
2 -0.29
20 -0.15
21 -0.15
22 0.35
23 0.35
24 0.15
25 0.15
26 0.15
27 0.37
28 0.37
29 0.15
3 -0.2
30 0.15
31 0.15
32 0.15
33 0.15
4 -0.57
5 -0.57
6 -0.55
7 -0.55
8 0.12
9 0.1

>  <PUBCHEM_EFFECTIVE_ROTOR_COUNT>  (1) 
8

>  <PUBCHEM_PHARMACOPHORE_FEATURES>  (1) 
6
1 4 acceptor
1 5 acceptor
1 6 donor
1 7 donor
6 14 16 17 19 20 21 rings
6 8 9 10 11 12 13 rings

>  <PUBCHEM_HEAVY_ATOM_COUNT>  (1) 
23

>  <PUBCHEM_ATOM_DEF_STEREO_COUNT>  (1) 
0

>  <PUBCHEM_ATOM_UDEF_STEREO_COUNT>  (1) 
0

>  <PUBCHEM_BOND_DEF_STEREO_COUNT>  (1) 
0

>  <PUBCHEM_BOND_UDEF_STEREO_COUNT>  (1) 
0

>  <PUBCHEM_ISOTOPIC_ATOM_COUNT>  (1) 
0

>  <PUBCHEM_COMPONENT_COUNT>  (1) 
1

>  <PUBCHEM_CACTVS_TAUTO_COUNT>  (1) 
4

>  <PUBCHEM_CONFORMER_ID>  (1) 
0000BB6400000001

>  <PUBCHEM_MMFF94_ENERGY>  (1) 
66.4712

>  <PUBCHEM_FEATURE_SELFOVERLAP>  (1) 
30.446

>  <PUBCHEM_SHAPE_FINGERPRINT>  (1) 
107951 10 17315356088517643952
11045515 52 18048041774543930860
12553582 1 18192718842978924987
12730499 353 18263086676892332969
12788726 201 17469610607203906146
13009979 54 17845661326677078721
13533116 47 18273213119387195403
13757389 114 17264993696598887400
13955234 65 18271523199557958905
14739800 52 12396302582066388503
14863182 85 18199453510966062992
15475509 8 17910392780455848757
15664445 248 18337105657845528930
17492 54 18263098720439508422
17818456 19 17631175174110284561
1813 80 18268708316536239091
18915476 22 18265629834349729835
19930381 70 18410863131630797180
20388580 30 18271807886816850115
20554085 129 17843391032856082128
20645477 70 18336540594857485257
20775438 99 17400598716436781612
21285901 2 17967525796304334500
21344244 246 18340211877426455014
22950370 63 18268433421803048491
23419403 2 17681597810680804834
23557571 272 17979055108177452682
23559900 14 18340756058108788601
239999 70 18334285483624346555
25147074 1 17917447397378052345
266924 1 18059590091447621457
314173 41 18411135793008276723
3298306 158 18191594253538085324
38695281 34 18195244644647174328
46194498 28 18335697248175349215
532947 4 18410016576048856572
54076057 127 18338247067601808251
59755656 215 18187926239328886972
6025842 7 18339637949204146527
6669772 16 18198348549161905948
7364860 26 18409724092802168440
8272917 22 18338795718844183609

>  <PUBCHEM_SHAPE_MULTIPOLES>  (1) 
459.22
11.03
5.04
1.25
22.92
0.74
-0.28
-2.01
3.34
-9.53
1.38
-0.6
-0.41
0.56

>  <PUBCHEM_SHAPE_SELFOVERLAP>  (1) 
933.493

>  <PUBCHEM_SHAPE_VOLUME>  (1) 
267

>  <PUBCHEM_COORDINATE_TYPE>  (1) 
2
5
10

$$$$
