47986
     RDKit          3D

 46 53  0  0  0  0  0  0  0  0999 V2000
   -4.1143   -1.5172   -0.7766 O   0  0  0  0  0  0  0  0  0  0  0  0
   -1.8229   -2.6931    0.2787 O   0  0  0  0  0  0  0  0  0  0  0  0
   -2.2710    0.5239   -0.1788 N   0  0  0  0  0  0  0  0  0  0  0  0
    0.7487   -1.5825    0.0065 N   0  0  0  0  0  0  0  0  0  0  0  0
    1.0085    2.9612    0.7557 N   0  0  0  0  0  0  0  0  0  0  0  0
    4.1984    0.7588   -0.4247 N   0  0  0  0  0  0  0  0  0  0  0  0
   -1.1698    1.3422    0.1349 C   0  0  0  0  0  0  0  0  0  0  0  0
    1.9185   -0.7885   -0.1397 C   0  0  0  0  0  0  0  0  0  0  0  0
   -0.8602    1.6275    1.4758 C   0  0  0  0  0  0  0  0  0  0  0  0
    2.4031   -0.4971   -1.4188 C   0  0  0  0  0  0  0  0  0  0  0  0
   -0.3728    1.8795   -0.8907 C   0  0  0  0  0  0  0  0  0  0  0  0
    2.5751   -0.3056    0.9968 C   0  0  0  0  0  0  0  0  0  0  0  0
    0.2481    2.4491    1.7427 C   0  0  0  0  0  0  0  0  0  0  0  0
    3.5622    0.2911   -1.5161 C   0  0  0  0  0  0  0  0  0  0  0  0
    0.7163    2.6911   -0.5313 C   0  0  0  0  0  0  0  0  0  0  0  0
    3.7275    0.4751    0.8050 C   0  0  0  0  0  0  0  0  0  0  0  0
   -3.6313    0.8074   -0.4295 C   0  0  0  0  0  0  0  0  0  0  0  0
    0.5568   -2.9648    0.1305 C   0  0  0  0  0  0  0  0  0  0  0  0
   -1.6330    1.1095    2.5297 C   0  0  0  0  0  0  0  0  0  0  0  0
    1.7634   -0.9694   -2.5781 C   0  0  0  0  0  0  0  0  0  0  0  0
   -0.6501    1.6174   -2.2438 C   0  0  0  0  0  0  0  0  0  0  0  0
    2.1104   -0.5830    2.2942 C   0  0  0  0  0  0  0  0  0  0  0  0
    0.5505    2.7287    3.0728 C   0  0  0  0  0  0  0  0  0  0  0  0
    4.0496    0.5847   -2.7869 C   0  0  0  0  0  0  0  0  0  0  0  0
    1.5027    3.2208   -1.5509 C   0  0  0  0  0  0  0  0  0  0  0  0
    4.3857    0.9589    1.9326 C   0  0  0  0  0  0  0  0  0  0  0  0
   -4.5304   -0.2129   -0.7236 C   0  0  0  0  0  0  0  0  0  0  0  0
   -0.7282   -3.5052    0.2652 C   0  0  0  0  0  0  0  0  0  0  0  0
   -1.3095    1.4041    3.8508 C   0  0  0  0  0  0  0  0  0  0  0  0
    2.2709   -0.6617   -3.8369 C   0  0  0  0  0  0  0  0  0  0  0  0
    0.1516    2.1592   -3.2441 C   0  0  0  0  0  0  0  0  0  0  0  0
    2.7868   -0.0875    3.4050 C   0  0  0  0  0  0  0  0  0  0  0  0
   -0.2153    2.2154    4.1225 C   0  0  0  0  0  0  0  0  0  0  0  0
    3.4164    0.1170   -3.9411 C   0  0  0  0  0  0  0  0  0  0  0  0
    1.2301    2.9625   -2.8965 C   0  0  0  0  0  0  0  0  0  0  0  0
    3.9267    0.6851    3.2234 C   0  0  0  0  0  0  0  0  0  0  0  0
   -4.0756    2.1287   -0.3804 C   0  0  0  0  0  0  0  0  0  0  0  0
    1.6622   -3.8243    0.1199 C   0  0  0  0  0  0  0  0  0  0  0  0
   -4.1746   -2.2586    0.4359 C   0  0  0  0  0  0  0  0  0  0  0  0
   -3.0944   -3.3230    0.4193 C   0  0  0  0  0  0  0  0  0  0  0  0
   -5.8696    0.0749   -0.9689 C   0  0  0  0  0  0  0  0  0  0  0  0
   -0.9046   -4.8836    0.3873 C   0  0  0  0  0  0  0  0  0  0  0  0
   -5.4169    2.4231   -0.6256 C   0  0  0  0  0  0  0  0  0  0  0  0
    1.4857   -5.2026    0.2420 C   0  0  0  0  0  0  0  0  0  0  0  0
   -6.3138    1.3962   -0.9199 C   0  0  0  0  0  0  0  0  0  0  0  0
    0.2024   -5.7322    0.3758 C   0  0  0  0  0  0  0  0  0  0  0  0
  1 27  1  0
  1 39  1  0
  2 28  1  0
  2 40  1  0
  3  7  1  0
  3 17  1  0
  4  8  1  0
  4 18  1  0
  5 13  2  0
  5 15  1  0
  6 14  2  0
  6 16  1  0
  7  9  2  0
  7 11  1  0
  8 10  2  0
  8 12  1  0
  9 13  1  0
  9 19  1  0
 10 14  1  0
 10 20  1  0
 11 15  2  0
 11 21  1  0
 12 16  2  0
 12 22  1  0
 13 23  1  0
 14 24  1  0
 15 25  1  0
 16 26  1  0
 17 27  1  0
 17 37  2  0
 18 28  1  0
 18 38  2  0
 19 29  2  0
 20 30  2  0
 21 31  2  0
 22 32  2  0
 23 33  2  0
 24 34  2  0
 25 35  2  0
 26 36  2  0
 27 41  2  0
 28 42  2  0
 29 33  1  0
 30 34  1  0
 31 35  1  0
 32 36  1  0
 37 43  1  0
 38 44  1  0
 39 40  1  0
 41 45  1  0
 42 46  1  0
 43 45  2  0
 44 46  2  0
M  END
>  <PUBCHEM_COMPOUND_CID>  (1) 
47986

>  <PUBCHEM_CONFORMER_RMSD>  (1) 
1.2

>  <PUBCHEM_CONFORMER_DIVERSEORDER>  (1) 
1
32
210
74
136
72
3
37
245
140
154
8
24
50
99
126
169
65
214
56
19
239
211
30
122
29
28
2
54
85
6
156
229
148
20
230
121
105
174
223
144
186
35
200
232
116
51
59
70
34
158
197
226
231
103
187
163
178
77
218
114
115
45
189
166
134
202
130
40
84
23
208
198
61
94
243
131
175
160
168
125
220
111
73
4
139
224
176
222
181
64
203
193
153
242
241
109
205
11
41
162
21
27
14
143
157
217
95
234
236
235
87
179
39
155
132
152
145
228
147
159
119
127
68
117
221
225
107
173
201
141
124
113
183
101
204
170
171
212
120
86
81
76
135
237
177
185
49
106
75
89
48
219
161
240
199
97
138
180
244
82
46
96
216
98
69
112
57
196
146
62
83
142
78
191
104
188
38
102
80
79
92
164
207
194
33
165
233
53
55
184
26
151
123
238
58
227
63
150
36
88
31
90
100
110
47
215
209
167
10
190
22
128
192
118
172
13
12
149
9
108
91
93
66
42
44
67
25
17
60
71
182
213
16
129
137
206
15
133
43
18
52
5
195
7

>  <PUBCHEM_MMFF94_PARTIAL_CHARGES>  (1) 
68
1 -0.36
13 0.31
14 0.31
15 0.31
16 0.31
17 0.1
18 0.1
19 -0.15
2 -0.36
20 -0.15
21 -0.15
22 -0.15
23 -0.15
24 -0.15
25 -0.15
26 -0.15
27 0.08
28 0.08
29 -0.15
3 -0.6
30 -0.15
31 -0.15
32 -0.15
33 -0.15
34 -0.15
35 -0.15
36 -0.15
37 -0.15
38 -0.15
39 0.28
4 -0.6
40 0.28
41 -0.15
42 -0.15
43 -0.15
44 -0.15
45 -0.15
46 -0.15
47 0.4
48 0.4
49 0.15
5 -0.62
50 0.15
51 0.15
52 0.15
53 0.15
54 0.15
55 0.15
56 0.15
57 0.15
58 0.15
59 0.15
6 -0.62
60 0.15
61 0.15
62 0.15
63 0.15
64 0.15
65 0.15
66 0.15
7 0.1
71 0.15
72 0.15
73 0.15
74 0.15
75 0.15
76 0.15
8 0.1

>  <PUBCHEM_EFFECTIVE_ROTOR_COUNT>  (1) 
9

>  <PUBCHEM_PHARMACOPHORE_FEATURES>  (1) 
16
1 1 acceptor
1 2 acceptor
1 3 cation
1 3 donor
1 4 cation
1 4 donor
1 5 acceptor
1 6 acceptor
6 10 14 20 24 30 34 rings
6 11 15 21 25 31 35 rings
6 12 16 22 26 32 36 rings
6 17 27 37 41 43 45 rings
6 18 28 38 42 44 46 rings
6 5 7 9 11 13 15 rings
6 6 8 10 12 14 16 rings
6 9 13 19 23 29 33 rings

>  <PUBCHEM_HEAVY_ATOM_COUNT>  (1) 
46

>  <PUBCHEM_ATOM_DEF_STEREO_COUNT>  (1) 
0

>  <PUBCHEM_ATOM_UDEF_STEREO_COUNT>  (1) 
0

>  <PUBCHEM_BOND_DEF_STEREO_COUNT>  (1) 
0

>  <PUBCHEM_BOND_UDEF_STEREO_COUNT>  (1) 
0

>  <PUBCHEM_ISOTOPIC_ATOM_COUNT>  (1) 
0

>  <PUBCHEM_COMPONENT_COUNT>  (1) 
1

>  <PUBCHEM_CACTVS_TAUTO_COUNT>  (1) 
3

>  <PUBCHEM_CONFORMER_ID>  (1) 
0000BB7200000001

>  <PUBCHEM_MMFF94_ENERGY>  (1) 
201.6592

>  <PUBCHEM_FEATURE_SELFOVERLAP>  (1) 
81.33

>  <PUBCHEM_SHAPE_FINGERPRINT>  (1) 
11093857 51 18262504988302957447
11285246 1 17694264042841692550
12156800 1 18121218942465883654
13383668 90 16305681879292315386
14040221 299 18267845256143923626
14068700 675 17692515724980220259
14725015 67 17981309399125631139
15297060 5 18339093622044453726
161222 619 17415830555774099104
17809404 112 17418093265147327989
19315092 285 17912635813882105891
20600515 1 18267577099760252248
20764821 26 17974557306935740719
20905425 154 17329998404638550062
22121540 332 17193177359537744344
57527452 28 18341047432826919724
70251023 43 17394181932121895875

>  <PUBCHEM_SHAPE_MULTIPOLES>  (1) 
915
8.67
5.83
4.36
11.68
10.07
0.91
-2.22
-2.7
0.58
0.66
-4.57
-3.81
0.18

>  <PUBCHEM_SHAPE_SELFOVERLAP>  (1) 
2083.696

>  <PUBCHEM_SHAPE_VOLUME>  (1) 
473.4

>  <PUBCHEM_COORDINATE_TYPE>  (1) 
2
5
10

$$$$
