47988
     RDKit          3D

 47 54  0  0  0  0  0  0  0  0999 V2000
    0.9386    3.6638   -0.2639 O   0  0  0  0  0  0  0  0  0  0  0  0
    3.7390    1.7096   -0.7573 O   0  0  0  0  0  0  0  0  0  0  0  0
   -1.0243    1.6573   -0.5157 N   0  0  0  0  0  0  0  0  0  0  0  0
    2.1671   -0.4144    0.1950 N   0  0  0  0  0  0  0  0  0  0  0  0
   -3.3002   -1.8271   -0.8760 N   0  0  0  0  0  0  0  0  0  0  0  0
   -0.7688   -3.2280    1.2109 N   0  0  0  0  0  0  0  0  0  0  0  0
   -1.7911    0.4834   -0.6372 C   0  0  0  0  0  0  0  0  0  0  0  0
    1.1715   -1.3685    0.5394 C   0  0  0  0  0  0  0  0  0  0  0  0
   -2.7452    0.1749    0.3376 C   0  0  0  0  0  0  0  0  0  0  0  0
    0.4040   -1.1835    1.6939 C   0  0  0  0  0  0  0  0  0  0  0  0
   -1.5921   -0.3645   -1.7315 C   0  0  0  0  0  0  0  0  0  0  0  0
    0.9679   -2.4843   -0.2789 C   0  0  0  0  0  0  0  0  0  0  0  0
   -3.4877   -1.0071    0.1761 C   0  0  0  0  0  0  0  0  0  0  0  0
   -0.5686   -2.1516    1.9956 C   0  0  0  0  0  0  0  0  0  0  0  0
   -2.3798   -1.5253   -1.8121 C   0  0  0  0  0  0  0  0  0  0  0  0
   -0.0269   -3.4014    0.1000 C   0  0  0  0  0  0  0  0  0  0  0  0
   -1.3729    3.0242   -0.4550 C   0  0  0  0  0  0  0  0  0  0  0  0
    3.5271   -0.3130    0.5160 C   0  0  0  0  0  0  0  0  0  0  0  0
    3.0998    3.9586   -1.2844 C   0  0  0  0  0  0  0  0  0  0  0  0
   -2.9660    1.0087    1.4477 C   0  0  0  0  0  0  0  0  0  0  0  0
    0.5874   -0.0717    2.5345 C   0  0  0  0  0  0  0  0  0  0  0  0
   -0.6401   -0.0791   -2.7258 C   0  0  0  0  0  0  0  0  0  0  0  0
    1.7247   -2.6954   -1.4447 C   0  0  0  0  0  0  0  0  0  0  0  0
   -0.3876    4.0037   -0.3304 C   0  0  0  0  0  0  0  0  0  0  0  0
    4.2933    0.7486    0.0346 C   0  0  0  0  0  0  0  0  0  0  0  0
    1.6419    3.5817   -1.4961 C   0  0  0  0  0  0  0  0  0  0  0  0
    3.7818    3.0505   -0.2744 C   0  0  0  0  0  0  0  0  0  0  0  0
   -4.4393   -1.3198    1.1433 C   0  0  0  0  0  0  0  0  0  0  0  0
   -1.3359   -1.9730    3.1437 C   0  0  0  0  0  0  0  0  0  0  0  0
   -2.1864   -2.3735   -2.8992 C   0  0  0  0  0  0  0  0  0  0  0  0
   -0.2343   -4.5143   -0.7106 C   0  0  0  0  0  0  0  0  0  0  0  0
   -3.9233    0.6733    2.4005 C   0  0  0  0  0  0  0  0  0  0  0  0
   -0.1927    0.0835    3.6764 C   0  0  0  0  0  0  0  0  0  0  0  0
   -0.4663   -0.9434   -3.8025 C   0  0  0  0  0  0  0  0  0  0  0  0
    1.4976   -3.8161   -2.2379 C   0  0  0  0  0  0  0  0  0  0  0  0
   -2.7169    3.3916   -0.5211 C   0  0  0  0  0  0  0  0  0  0  0  0
    4.1140   -1.2859    1.3252 C   0  0  0  0  0  0  0  0  0  0  0  0
   -4.6613   -0.4934    2.2476 C   0  0  0  0  0  0  0  0  0  0  0  0
   -1.1564   -0.8694    3.9813 C   0  0  0  0  0  0  0  0  0  0  0  0
   -1.2412   -2.0929   -3.8891 C   0  0  0  0  0  0  0  0  0  0  0  0
    0.5159   -4.7272   -1.8697 C   0  0  0  0  0  0  0  0  0  0  0  0
   -0.7464    5.3505   -0.2722 C   0  0  0  0  0  0  0  0  0  0  0  0
    5.6462    0.8372    0.3626 C   0  0  0  0  0  0  0  0  0  0  0  0
   -3.0756    4.7383   -0.4627 C   0  0  0  0  0  0  0  0  0  0  0  0
    5.4669   -1.1973    1.6530 C   0  0  0  0  0  0  0  0  0  0  0  0
   -2.0904    5.7177   -0.3382 C   0  0  0  0  0  0  0  0  0  0  0  0
    6.2330   -0.1358    1.1717 C   0  0  0  0  0  0  0  0  0  0  0  0
  1 24  1  0
  1 26  1  0
  2 25  1  0
  2 27  1  0
  3  7  1  0
  3 17  1  0
  4  8  1  0
  4 18  1  0
  5 13  2  0
  5 15  1  0
  6 14  2  0
  6 16  1  0
  7  9  2  0
  7 11  1  0
  8 10  2  0
  8 12  1  0
  9 13  1  0
  9 20  1  0
 10 14  1  0
 10 21  1  0
 11 15  2  0
 11 22  1  0
 12 16  2  0
 12 23  1  0
 13 28  1  0
 14 29  1  0
 15 30  1  0
 16 31  1  0
 17 24  1  0
 17 36  2  0
 18 25  1  0
 18 37  2  0
 19 26  1  0
 19 27  1  0
 20 32  2  0
 21 33  2  0
 22 34  2  0
 23 35  2  0
 24 42  2  0
 25 43  2  0
 28 38  2  0
 29 39  2  0
 30 40  2  0
 31 41  2  0
 32 38  1  0
 33 39  1  0
 34 40  1  0
 35 41  1  0
 36 44  1  0
 37 45  1  0
 42 46  1  0
 43 47  1  0
 44 46  2  0
 45 47  2  0
M  END
>  <PUBCHEM_COMPOUND_CID>  (1) 
47988

>  <PUBCHEM_CONFORMER_RMSD>  (1) 
1.2

>  <PUBCHEM_CONFORMER_DIVERSEORDER>  (1) 
1
292
217
72
113
178
314
22
298
7
122
108
373
44
96
330
218
55
184
105
166
120
254
137
61
337
372
34
212
33
215
168
90
276
357
27
303
355
317
46
334
12
275
252
66
188
125
136
323
247
229
149
77
241
28
207
21
131
205
246
351
349
155
192
94
167
260
319
377
32
365
18
258
112
237
335
114
376
161
139
129
379
284
228
299
208
359
47
368
111
70
354
310
374
326
358
331
156
300
84
176
134
220
159
249
138
222
321
194
135
307
301
363
309
126
170
102
325
265
226
242
327
304
367
221
239
339
16
244
236
268
115
109
269
148
173
288
257
223
378
174
3
209
202
313
370
119
274
197
294
293
262
185
287
253
93
71
163
121
333
279
117
181
182
350
234
29
324
153
147
165
133
52
230
146
315
281
371
344
347
59
346
285
8
214
348
291
189
297
60
92
26
270
150
366
219
196
256
103
10
213
271
110
311
118
204
345
198
78
172
98
187
195
81
277
191
53
342
233
157
127
169
295
152
375
282
332
69
74
36
341
5
87
124
175
266
206
23
82
312
318
328
57
261
306
273
68
177
211
305
362
343
130
67
210
85
338
132
360
17
158
41
302
164
151
316
353
2
243
162
356
255
13
140
143
308
225
286
329
369
364
100
31
361
76
272
227
179
263
278
232
128
340
11
95
186
15
116
43
14
86
97
141
193
62
19
180
245
199
160
37
42
336
73
289
280
259
20
171
88
75
54
65
283
63
203
89
35
320
216
267
248
290
224
24
183
58
25
106
200
296
322
83
56
352
39
30
190
80
9
144
49
231
104
142
79
123
40
251
240
238
101
154
51
250
6
107
50
201
99
91
45
264
48
4
64
38
235
145

>  <PUBCHEM_MMFF94_PARTIAL_CHARGES>  (1) 
68
1 -0.36
13 0.31
14 0.31
15 0.31
16 0.31
17 0.1
18 0.1
2 -0.36
20 -0.15
21 -0.15
22 -0.15
23 -0.15
24 0.08
25 0.08
26 0.28
27 0.28
28 -0.15
29 -0.15
3 -0.6
30 -0.15
31 -0.15
32 -0.15
33 -0.15
34 -0.15
35 -0.15
36 -0.15
37 -0.15
38 -0.15
39 -0.15
4 -0.6
40 -0.15
41 -0.15
42 -0.15
43 -0.15
44 -0.15
45 -0.15
46 -0.15
47 -0.15
48 0.4
49 0.4
5 -0.62
52 0.15
53 0.15
54 0.15
55 0.15
6 -0.62
60 0.15
61 0.15
62 0.15
63 0.15
64 0.15
65 0.15
66 0.15
67 0.15
68 0.15
69 0.15
7 0.1
70 0.15
71 0.15
72 0.15
73 0.15
74 0.15
75 0.15
76 0.15
77 0.15
78 0.15
79 0.15
8 0.1

>  <PUBCHEM_EFFECTIVE_ROTOR_COUNT>  (1) 
10

>  <PUBCHEM_PHARMACOPHORE_FEATURES>  (1) 
16
1 1 acceptor
1 2 acceptor
1 3 cation
1 3 donor
1 4 cation
1 4 donor
1 5 acceptor
1 6 acceptor
6 10 14 21 29 33 39 rings
6 11 15 22 30 34 40 rings
6 12 16 23 31 35 41 rings
6 17 24 36 42 44 46 rings
6 18 25 37 43 45 47 rings
6 5 7 9 11 13 15 rings
6 6 8 10 12 14 16 rings
6 9 13 20 28 32 38 rings

>  <PUBCHEM_HEAVY_ATOM_COUNT>  (1) 
47

>  <PUBCHEM_ATOM_DEF_STEREO_COUNT>  (1) 
0

>  <PUBCHEM_ATOM_UDEF_STEREO_COUNT>  (1) 
0

>  <PUBCHEM_BOND_DEF_STEREO_COUNT>  (1) 
0

>  <PUBCHEM_BOND_UDEF_STEREO_COUNT>  (1) 
0

>  <PUBCHEM_ISOTOPIC_ATOM_COUNT>  (1) 
0

>  <PUBCHEM_COMPONENT_COUNT>  (1) 
1

>  <PUBCHEM_CACTVS_TAUTO_COUNT>  (1) 
3

>  <PUBCHEM_CONFORMER_ID>  (1) 
0000BB7400000001

>  <PUBCHEM_MMFF94_ENERGY>  (1) 
203.0221

>  <PUBCHEM_FEATURE_SELFOVERLAP>  (1) 
81.326

>  <PUBCHEM_SHAPE_FINGERPRINT>  (1) 
11513181 2 18412824656401737508
12156800 1 17828800276962735237
19319366 153 17917990551221330279
20764821 26 17470728170896517452
392239 28 18041290906330465201
469060 322 18343016731066938155
57527306 92 18116131390152409103
57527452 28 17560254612091143019
5776283 40 17258788018859505150

>  <PUBCHEM_SHAPE_MULTIPOLES>  (1) 
935.58
8.05
7.19
3.77
9.36
7.08
0.37
3.67
3.94
-1.92
-4.33
-1.81
-3.38
0.31

>  <PUBCHEM_SHAPE_SELFOVERLAP>  (1) 
2124.634

>  <PUBCHEM_SHAPE_VOLUME>  (1) 
485.3

>  <PUBCHEM_COORDINATE_TYPE>  (1) 
2
5
10

$$$$
