48010
     RDKit          3D

 39 44  0  0  0  0  0  0  0  0999 V2000
   -4.1770   -1.4772    1.1288 O   0  0  0  0  0  0  0  0  0  0  0  0
    2.0983   -2.4569    0.4885 N   0  0  0  0  0  0  0  0  0  0  0  0
   -2.2465    0.2986    0.1246 N   0  0  0  0  0  0  0  0  0  0  0  0
    1.1592    2.4466   -1.0397 N   0  0  0  0  0  0  0  0  0  0  0  0
    4.0640    1.0643    1.5408 N   0  0  0  0  0  0  0  0  0  0  0  0
   -1.1043   -4.4919    0.8851 C   0  0  0  0  0  0  0  0  0  0  0  0
   -2.1301   -3.4233    0.5022 C   0  0  0  0  0  0  0  0  0  0  0  0
    0.2986   -4.1139    0.4000 C   0  0  0  0  0  0  0  0  0  0  0  0
   -3.5236   -3.7821    1.0133 C   0  0  0  0  0  0  0  0  0  0  0  0
    0.7935   -2.8009    1.0011 C   0  0  0  0  0  0  0  0  0  0  0  0
   -4.5584   -2.7453    0.5998 C   0  0  0  0  0  0  0  0  0  0  0  0
   -1.0916    1.0269   -0.2702 C   0  0  0  0  0  0  0  0  0  0  0  0
    2.7738   -1.2937    0.8217 C   0  0  0  0  0  0  0  0  0  0  0  0
   -0.4786    0.7439   -1.4950 C   0  0  0  0  0  0  0  0  0  0  0  0
   -0.5780    2.0206    0.5694 C   0  0  0  0  0  0  0  0  0  0  0  0
   -4.5607   -0.3733    0.4275 C   0  0  0  0  0  0  0  0  0  0  0  0
   -3.6152    0.5189   -0.0782 C   0  0  0  0  0  0  0  0  0  0  0  0
    4.0407   -1.0007    0.2990 C   0  0  0  0  0  0  0  0  0  0  0  0
    0.6606    1.4885   -1.8447 C   0  0  0  0  0  0  0  0  0  0  0  0
    0.5649    2.7153    0.1389 C   0  0  0  0  0  0  0  0  0  0  0  0
   -0.9733   -0.2491   -2.3586 C   0  0  0  0  0  0  0  0  0  0  0  0
   -1.1739    2.3260    1.8055 C   0  0  0  0  0  0  0  0  0  0  0  0
    2.1593   -0.4109    1.6980 C   0  0  0  0  0  0  0  0  0  0  0  0
    4.6580    0.2057    0.6906 C   0  0  0  0  0  0  0  0  0  0  0  0
   -5.9202   -0.1413    0.2183 C   0  0  0  0  0  0  0  0  0  0  0  0
   -4.0292    1.6427   -0.7933 C   0  0  0  0  0  0  0  0  0  0  0  0
    1.2753    1.2114   -3.0629 C   0  0  0  0  0  0  0  0  0  0  0  0
    1.0809    3.7057    0.9705 C   0  0  0  0  0  0  0  0  0  0  0  0
    4.6897   -1.8737   -0.5906 C   0  0  0  0  0  0  0  0  0  0  0  0
   -0.3403   -0.5067   -3.5708 C   0  0  0  0  0  0  0  0  0  0  0  0
   -0.6384    3.3208    2.6182 C   0  0  0  0  0  0  0  0  0  0  0  0
   -6.3342    0.9825   -0.4968 C   0  0  0  0  0  0  0  0  0  0  0  0
   -5.3887    1.8745   -1.0025 C   0  0  0  0  0  0  0  0  0  0  0  0
    0.7864    0.2253   -3.9234 C   0  0  0  0  0  0  0  0  0  0  0  0
    0.4914    4.0118    2.1995 C   0  0  0  0  0  0  0  0  0  0  0  0
    2.8412    0.7442    2.0227 C   0  0  0  0  0  0  0  0  0  0  0  0
    5.9165    0.4962    0.1710 C   0  0  0  0  0  0  0  0  0  0  0  0
    5.9480   -1.5581   -1.0949 C   0  0  0  0  0  0  0  0  0  0  0  0
    6.5619   -0.3715   -0.7134 C   0  0  0  0  0  0  0  0  0  0  0  0
  1 11  1  0
  1 16  1  0
  2 10  1  0
  2 13  1  0
  3 12  1  0
  3 17  1  0
  4 19  2  0
  4 20  1  0
  5 24  2  0
  5 36  1  0
  6  7  1  0
  6  8  1  0
  7  9  1  0
  8 10  1  0
  9 11  1  0
 12 14  2  0
 12 15  1  0
 13 18  2  0
 13 23  1  0
 14 19  1  0
 14 21  1  0
 15 20  2  0
 15 22  1  0
 16 17  1  0
 16 25  2  0
 17 26  2  0
 18 24  1  0
 18 29  1  0
 19 27  1  0
 20 28  1  0
 21 30  2  0
 22 31  2  0
 23 36  2  0
 24 37  1  0
 25 32  1  0
 26 33  1  0
 27 34  2  0
 28 35  2  0
 29 38  2  0
 30 34  1  0
 31 35  1  0
 32 33  2  0
 37 39  2  0
 38 39  1  0
M  END
>  <PUBCHEM_COMPOUND_CID>  (1) 
48010

>  <PUBCHEM_CONFORMER_RMSD>  (1) 
1.6

>  <PUBCHEM_CONFORMER_DIVERSEORDER>  (1) 
1
97
44
88
34
64
6
56
41
3
52
19
65
102
83
2
58
50
36
86
75
98
53
27
49
38
66
17
31
4
90
67
106
81
108
100
109
68
24
11
101
62
72
61
78
51
103
76
95
70
63
92
45
48
87
28
42
60
80
32
84
22
85
33
55
105
18
74
23
16
82
46
96
7
79
35
110
77
14
39
94
69
89
40
107
37
26
21
57
9
47
54
91
5
73
111
59
25
13
29
30
43
20
8
71
104
10
93
99
12
15

>  <PUBCHEM_MMFF94_PARTIAL_CHARGES>  (1) 
52
1 -0.36
10 0.37
11 0.28
12 0.1
13 0.1
16 0.08
17 0.1
19 0.31
2 -0.87
20 0.31
21 -0.15
22 -0.15
23 -0.15
24 0.31
25 -0.15
26 -0.15
27 -0.15
28 -0.15
29 -0.15
3 -0.6
30 -0.15
31 -0.15
32 -0.15
33 -0.15
34 -0.15
35 -0.15
36 0.16
37 -0.15
38 -0.15
39 -0.15
4 -0.62
5 -0.62
52 0.4
53 0.4
54 0.15
55 0.15
56 0.15
57 0.15
58 0.15
59 0.15
60 0.15
61 0.15
62 0.15
63 0.15
64 0.15
65 0.15
66 0.15
67 0.15
68 0.15
69 0.15
70 0.15
71 0.15

>  <PUBCHEM_EFFECTIVE_ROTOR_COUNT>  (1) 
11

>  <PUBCHEM_PHARMACOPHORE_FEATURES>  (1) 
14
1 1 acceptor
1 2 cation
1 2 donor
1 3 cation
1 3 donor
1 4 acceptor
1 5 acceptor
4 6 7 8 9 hydrophobe
6 14 19 21 27 30 34 rings
6 15 20 22 28 31 35 rings
6 16 17 25 26 32 33 rings
6 18 24 29 37 38 39 rings
6 4 12 14 15 19 20 rings
6 5 13 18 23 24 36 rings

>  <PUBCHEM_HEAVY_ATOM_COUNT>  (1) 
39

>  <PUBCHEM_ATOM_DEF_STEREO_COUNT>  (1) 
0

>  <PUBCHEM_ATOM_UDEF_STEREO_COUNT>  (1) 
0

>  <PUBCHEM_BOND_DEF_STEREO_COUNT>  (1) 
0

>  <PUBCHEM_BOND_UDEF_STEREO_COUNT>  (1) 
0

>  <PUBCHEM_ISOTOPIC_ATOM_COUNT>  (1) 
0

>  <PUBCHEM_COMPONENT_COUNT>  (1) 
1

>  <PUBCHEM_CACTVS_TAUTO_COUNT>  (1) 
6

>  <PUBCHEM_CONFORMER_ID>  (1) 
0000BB8A00000001

>  <PUBCHEM_MMFF94_ENERGY>  (1) 
149.3433

>  <PUBCHEM_FEATURE_SELFOVERLAP>  (1) 
71.14

>  <PUBCHEM_SHAPE_FINGERPRINT>  (1) 
10864689 126 18339074895981742762
11513181 2 17838059569634515110
12107698 1 17774434972204241248
12128747 34 18051128387013678973
12156800 1 17696239968515739542
13583140 156 18055059128731417545
14279260 333 17985261882051620526
14840074 17 17385727975883654150
14955137 171 18131632317612483169
15297060 5 18411427184832326850
17974551 9 18124306366336447255
18336668 15 17968945313054924366
18365409 1 18335136531969685399
23559900 14 18261385685487012293
392239 28 18341052930248298402
469060 322 17095235952143874518
5265222 85 18187651340221107741
57527452 28 17967822613093584274
9896288 288 17914335667828735056

>  <PUBCHEM_SHAPE_MULTIPOLES>  (1) 
776.81
12
5.13
2.85
1.39
2.63
2.74
3.15
0.21
-2.37
-3.6
0.84
-1.44
1.55

>  <PUBCHEM_SHAPE_SELFOVERLAP>  (1) 
1719.667

>  <PUBCHEM_SHAPE_VOLUME>  (1) 
413.7

>  <PUBCHEM_COORDINATE_TYPE>  (1) 
2
5
10

$$$$
