48029
     RDKit          3D

  9  8  0  0  0  0  0  0  0  0999 V2000
    3.6738    0.0216    0.1938 S   0  0  0  0  0  0  0  0  0  0  0  0
   -0.4622    0.0015   -0.0340 N   0  0  0  0  0  0  0  0  0  0  0  0
    0.9390    0.4743    0.3255 C   0  0  0  0  0  0  0  0  0  0  0  0
   -0.6725   -1.4099    0.4952 C   0  0  0  0  0  0  0  0  0  0  0  0
   -1.4888    0.9355    0.5904 C   0  0  0  0  0  0  0  0  0  0  0  0
   -0.6267    0.0057   -1.5470 C   0  0  0  0  0  0  0  0  0  0  0  0
    1.9789   -0.4908   -0.2196 C   0  0  0  0  0  0  0  0  0  0  0  0
   -2.0667   -1.8746    0.1350 C   0  0  0  0  0  0  0  0  0  0  0  0
   -1.2748    2.3366    0.0606 C   0  0  0  0  0  0  0  0  0  0  0  0
  1  7  1  0
  2  3  1  0
  2  4  1  0
  2  5  1  0
  2  6  1  0
  3  7  1  0
  4  8  1  0
  5  9  1  0
M  CHG  1   2   1
M  END
>  <PUBCHEM_COMPOUND_CID>  (1) 
48029

>  <PUBCHEM_CONFORMER_RMSD>  (1) 
0.6

>  <PUBCHEM_CONFORMER_DIVERSEORDER>  (1) 
11
6
7
1
5
9
8
4
2
10
3

>  <PUBCHEM_MMFF94_PARTIAL_CHARGES>  (1) 
8
1 -0.41
2 -1.01
27 0.18
3 0.5
4 0.5
5 0.5
6 0.5
7 0.23

>  <PUBCHEM_EFFECTIVE_ROTOR_COUNT>  (1) 
4

>  <PUBCHEM_PHARMACOPHORE_FEATURES>  (1) 
1
1 2 cation

>  <PUBCHEM_HEAVY_ATOM_COUNT>  (1) 
9

>  <PUBCHEM_ATOM_DEF_STEREO_COUNT>  (1) 
0

>  <PUBCHEM_ATOM_UDEF_STEREO_COUNT>  (1) 
0

>  <PUBCHEM_BOND_DEF_STEREO_COUNT>  (1) 
0

>  <PUBCHEM_BOND_UDEF_STEREO_COUNT>  (1) 
0

>  <PUBCHEM_ISOTOPIC_ATOM_COUNT>  (1) 
0

>  <PUBCHEM_COMPONENT_COUNT>  (1) 
1

>  <PUBCHEM_CACTVS_TAUTO_COUNT>  (1) 
1

>  <PUBCHEM_CONFORMER_ID>  (1) 
0000BB9D0000000B

>  <PUBCHEM_MMFF94_ENERGY>  (1) 
31.8589

>  <PUBCHEM_FEATURE_SELFOVERLAP>  (1) 
5.074

>  <PUBCHEM_SHAPE_FINGERPRINT>  (1) 
12423570 1 11219892236118982943
12716758 59 18268716013275706970
12932764 1 17313100814117379754
13024252 1 12973604417340178526
137420 1 14875717988427263953
20645464 45 18270966722241506494
20653085 51 17273419361549927752
20871998 184 18273220815156485742
21040471 1 18121787131646513728
23211744 41 17841159852662997069
23552449 1 18412265055673584376
29004967 10 17980478185039368539
3248919 1 18338223904610889878
369184 2 18411697664961147970
5084963 1 17986108513497079481
528862 383 17539405431860252114

>  <PUBCHEM_SHAPE_MULTIPOLES>  (1) 
184.08
3.96
1.99
0.98
5.11
0.47
-0.37
-0.45
0.42
-1.89
0.26
-0.21
0
0.04

>  <PUBCHEM_SHAPE_SELFOVERLAP>  (1) 
319.114

>  <PUBCHEM_SHAPE_VOLUME>  (1) 
126.5

>  <PUBCHEM_COORDINATE_TYPE>  (1) 
2
5
10

$$$$
