48027
     RDKit          3D

 36 39  0  0  1  0  0  0  0  0999 V2000
   -2.0652    2.4040   -3.0882 Cl  0  0  0  0  0  0  0  0  0  0  0  0
    2.9312    1.1805    1.0254 O   0  0  0  0  0  0  0  0  0  0  0  0
   -1.6398   -0.8664    2.2879 O   0  0  0  0  0  0  0  0  0  0  0  0
    2.0280    0.0686   -2.0519 O   0  0  0  0  0  0  0  0  0  0  0  0
    2.7401   -2.3085   -0.8624 O   0  0  0  0  0  0  0  0  0  0  0  0
    4.5094    1.5268   -0.6217 O   0  0  0  0  0  0  0  0  0  0  0  0
   -5.8595   -3.1467    0.0747 O   0  0  0  0  0  0  0  0  0  0  0  0
    4.0799   -3.4607    0.6214 O   0  0  0  0  0  0  0  0  0  0  0  0
    0.4550    1.0637    0.6731 C   0  0  0  0  0  0  0  0  0  0  0  0
   -0.4163    2.1304   -0.0788 C   0  0  0  0  0  0  0  0  0  0  0  0
   -1.9166    1.7570   -0.3751 C   0  0  0  0  0  0  0  0  0  0  0  0
   -2.4614    0.8472    0.7745 C   0  0  0  0  0  0  0  0  0  0  0  0
    1.8976    1.2033    0.0488 C   0  0  0  0  0  0  0  0  0  0  0  0
    0.4504    2.5710   -1.2644 C   0  0  0  0  0  0  0  0  0  0  0  0
   -0.1598   -0.3339    0.4632 C   0  0  0  0  0  0  0  0  0  0  0  0
    1.8904    2.5158   -0.7545 C   0  0  0  0  0  0  0  0  0  0  0  0
   -1.6176   -0.4552    0.9175 C   0  0  0  0  0  0  0  0  0  0  0  0
   -4.0018    0.5519    0.6411 C   0  0  0  0  0  0  0  0  0  0  0  0
   -2.2856    1.1824   -1.7755 C   0  0  0  0  0  0  0  0  0  0  0  0
    0.5164    1.3747    2.1909 C   0  0  0  0  0  0  0  0  0  0  0  0
   -3.7524    0.7298   -1.8997 C   0  0  0  0  0  0  0  0  0  0  0  0
   -4.2445   -0.0690   -0.7252 C   0  0  0  0  0  0  0  0  0  0  0  0
    2.2881    0.0559   -0.8497 C   0  0  0  0  0  0  0  0  0  0  0  0
    2.2772    3.7666    0.0358 C   0  0  0  0  0  0  0  0  0  0  0  0
   -4.8301    1.8524    0.7825 C   0  0  0  0  0  0  0  0  0  0  0  0
   -4.4860   -0.3451    1.7689 C   0  0  0  0  0  0  0  0  0  0  0  0
   -4.8390   -1.2591   -0.9041 C   0  0  0  0  0  0  0  0  0  0  0  0
    3.0107   -1.0981   -0.1878 C   0  0  0  0  0  0  0  0  0  0  0  0
   -5.0826   -1.5295    1.6012 C   0  0  0  0  0  0  0  0  0  0  0  0
    4.2036    1.3562    0.5503 C   0  0  0  0  0  0  0  0  0  0  0  0
   -5.3071   -2.0650    0.2443 C   0  0  0  0  0  0  0  0  0  0  0  0
    5.1755    1.3068    1.7058 C   0  0  0  0  0  0  0  0  0  0  0  0
    6.6143    1.4763    1.2502 C   0  0  0  0  0  0  0  0  0  0  0  0
    3.3421   -3.4350   -0.3540 C   0  0  0  0  0  0  0  0  0  0  0  0
    2.9523   -4.6360   -1.1834 C   0  0  0  0  0  0  0  0  0  0  0  0
    3.6030   -5.9130   -0.6811 C   0  0  0  0  0  0  0  0  0  0  0  0
  1 19  1  0
  2 13  1  0
  2 30  1  0
  3 17  1  0
  4 23  2  0
  5 28  1  0
  5 34  1  0
  6 30  2  0
  7 31  2  0
  8 34  2  0
  9 10  1  0
  9 13  1  0
  9 15  1  0
  9 20  1  0
 10 11  1  0
 10 14  1  0
 11 12  1  0
 11 19  1  0
 12 17  1  0
 12 18  1  0
 13 16  1  0
 13 23  1  0
 14 16  1  0
 15 17  1  0
 16 24  1  0
 18 22  1  0
 18 25  1  0
 18 26  1  0
 19 21  1  0
 21 22  1  0
 22 27  2  0
 23 28  1  0
 26 29  2  0
 27 31  1  0
 29 31  1  0
 30 32  1  0
 32 33  1  0
 34 35  1  0
 35 36  1  0
M  END
>  <PUBCHEM_COMPOUND_CID>  (1) 
48027

>  <PUBCHEM_CONFORMER_RMSD>  (1) 
1

>  <PUBCHEM_CONFORMER_DIVERSEORDER>  (1) 
3
112
158
86
129
88
191
148
81
139
43
155
154
16
27
11
85
13
123
173
163
100
33
153
4
141
181
40
60
156
115
53
132
87
164
159
130
122
17
186
19
114
76
169
125
39
111
195
196
150
67
147
151
59
77
75
120
34
116
10
73
32
142
178
69
126
109
190
68
61
66
94
119
127
152
138
92
58
79
166
1
144
137
82
108
118
103
131
183
23
140
91
38
78
36
7
106
65
71
30
124
54
172
48
57
185
46
21
56
175
64
102
194
134
2
98
15
25
165
182
45
97
51
84
55
161
107
143
149
193
179
93
6
95
189
89
101
47
74
133
83
113
162
80
31
104
63
20
180
35
136
26
135
177
168
170
72
117
14
176
187
167
121
62
5
52
171
50
41
70
44
157
18
192
110
9
160
146
99
49
96
184
12
145
28
174
105
90
29
37
22
8
42
24
128
188

>  <PUBCHEM_MMFF94_PARTIAL_CHARGES>  (1) 
28
1 -0.29
13 0.34
17 0.28
18 0.28
19 0.29
2 -0.43
21 0.14
22 -0.28
23 0.45
26 -0.29
27 -0.14
28 0.34
29 -0.14
3 -0.68
30 0.66
31 0.54
32 0.06
34 0.66
35 0.06
4 -0.57
5 -0.43
58 0.15
59 0.4
6 -0.57
60 0.15
63 0.15
7 -0.57
8 -0.57

>  <PUBCHEM_EFFECTIVE_ROTOR_COUNT>  (1) 
9.4

>  <PUBCHEM_PHARMACOPHORE_FEATURES>  (1) 
12
1 3 acceptor
1 3 donor
1 33 hydrophobe
1 36 hydrophobe
1 4 acceptor
1 6 acceptor
1 7 acceptor
1 8 acceptor
5 9 10 13 14 16 rings
6 11 12 18 19 21 22 rings
6 18 22 26 27 29 31 rings
6 9 10 11 12 15 17 rings

>  <PUBCHEM_HEAVY_ATOM_COUNT>  (1) 
36

>  <PUBCHEM_ATOM_DEF_STEREO_COUNT>  (1) 
4

>  <PUBCHEM_ATOM_UDEF_STEREO_COUNT>  (1) 
5

>  <PUBCHEM_BOND_DEF_STEREO_COUNT>  (1) 
0

>  <PUBCHEM_BOND_UDEF_STEREO_COUNT>  (1) 
0

>  <PUBCHEM_ISOTOPIC_ATOM_COUNT>  (1) 
0

>  <PUBCHEM_COMPONENT_COUNT>  (1) 
1

>  <PUBCHEM_CACTVS_TAUTO_COUNT>  (1) 
6

>  <PUBCHEM_CONFORMER_ID>  (1) 
0000BB9B00000003

>  <PUBCHEM_MMFF94_ENERGY>  (1) 
127.8872

>  <PUBCHEM_FEATURE_SELFOVERLAP>  (1) 
61.036

>  <PUBCHEM_SHAPE_FINGERPRINT>  (1) 
10928967 22 18271533017795857911
11135926 11 18413384324709844484
11285246 1 17463145547536755034
11445158 3 17823969233814361156
11488393 25 18410006607535530666
11828532 37 16662057052818548139
11963148 33 18263071253855443674
11991303 11 17686072991037689412
12107183 9 17911537406388363065
12293681 25 18190727644832870492
13224815 77 17313384573901069589
13782708 43 18187643652060817288
13911987 19 18265908024194086036
14659021 117 17615682939242354662
14910302 57 18114747027756128431
17349148 13 18335986488147391801
19315092 285 16482417635700989381
19319366 153 18057598974230614686
20028762 73 18266739271488917666
20511986 3 17203603774594710552
20775530 9 18191320277052495074
21033650 10 16516821230101666140
21285901 2 18113616811227941607
21987440 362 15364125043673778716
22182313 1 18188485762119835252
22956985 138 18267022753133519550
23559900 14 18116442444421122614
25222932 49 18059858423423512167
32027 91 18122904226913078231
3737641 26 18343308041465567678
463206 1 18049170964417535691
469060 322 18193819655992029735
508706 21 17385723569753278775
5104073 3 18202009789648535323
613672 6 17836350559102824582
86090 222 18342469157887668718

>  <PUBCHEM_SHAPE_MULTIPOLES>  (1) 
701.65
12.54
5.24
2.08
1.52
8.81
-0.48
5.49
3.39
-7.35
-1.93
1.1
-0.82
2.76

>  <PUBCHEM_SHAPE_SELFOVERLAP>  (1) 
1485.398

>  <PUBCHEM_SHAPE_VOLUME>  (1) 
388.4

>  <PUBCHEM_COORDINATE_TYPE>  (1) 
2
5
10

$$$$
