48020
     RDKit          3D

 44 50  0  0  0  0  0  0  0  0999 V2000
    0.5234    3.7853   -0.2706 S   0  0  0  0  0  0  0  0  0  0  0  0
    1.2920    4.9367   -0.7053 O   0  0  0  0  0  0  0  0  0  0  0  0
    0.6079    3.3171    1.0986 O   0  0  0  0  0  0  0  0  0  0  0  0
    4.5451   -0.0412   -0.6231 N   0  0  0  0  0  0  0  0  0  0  0  0
   -1.1168    4.0161   -0.7422 N   0  0  0  0  0  0  0  0  0  0  0  0
    8.2463   -1.4848    0.5982 N   0  0  0  0  0  0  0  0  0  0  0  0
   -4.9937    0.5148    1.3258 N   0  0  0  0  0  0  0  0  0  0  0  0
   -7.2682   -2.5329   -0.4366 N   0  0  0  0  0  0  0  0  0  0  0  0
    2.4129    1.9835   -1.1531 C   0  0  0  0  0  0  0  0  0  0  0  0
    2.8058    0.8408   -2.0970 C   0  0  0  0  0  0  0  0  0  0  0  0
    0.9700    2.4341   -1.3381 C   0  0  0  0  0  0  0  0  0  0  0  0
    4.2732    0.4423   -1.9553 C   0  0  0  0  0  0  0  0  0  0  0  0
    5.7796   -0.5226   -0.2159 C   0  0  0  0  0  0  0  0  0  0  0  0
    6.7215    0.3566    0.3280 C   0  0  0  0  0  0  0  0  0  0  0  0
    6.0721   -1.8833   -0.3522 C   0  0  0  0  0  0  0  0  0  0  0  0
    7.9594   -0.1751    0.7272 C   0  0  0  0  0  0  0  0  0  0  0  0
    7.3354   -2.3274    0.0738 C   0  0  0  0  0  0  0  0  0  0  0  0
   -2.1017    3.1268   -0.2156 C   0  0  0  0  0  0  0  0  0  0  0  0
   -5.7651   -0.5186    0.7282 C   0  0  0  0  0  0  0  0  0  0  0  0
   -7.0102   -0.2180    0.1665 C   0  0  0  0  0  0  0  0  0  0  0  0
   -5.2724   -1.8274    0.7069 C   0  0  0  0  0  0  0  0  0  0  0  0
    6.4542    1.7287    0.4768 C   0  0  0  0  0  0  0  0  0  0  0  0
    5.1444   -2.7893   -0.8951 C   0  0  0  0  0  0  0  0  0  0  0  0
   -4.0263    1.3874    0.8107 C   0  0  0  0  0  0  0  0  0  0  0  0
    8.9014    0.6951    1.2695 C   0  0  0  0  0  0  0  0  0  0  0  0
    7.6326   -3.6811   -0.0593 C   0  0  0  0  0  0  0  0  0  0  0  0
   -2.4558    3.1951    1.1320 C   0  0  0  0  0  0  0  0  0  0  0  0
   -2.7098    2.1889   -1.0499 C   0  0  0  0  0  0  0  0  0  0  0  0
   -7.7382   -1.2707   -0.4134 C   0  0  0  0  0  0  0  0  0  0  0  0
   -6.0684   -2.8170    0.1058 C   0  0  0  0  0  0  0  0  0  0  0  0
   -3.4180    2.3254    1.6449 C   0  0  0  0  0  0  0  0  0  0  0  0
   -3.6720    1.3192   -0.5368 C   0  0  0  0  0  0  0  0  0  0  0  0
    7.4131    2.5775    1.0218 C   0  0  0  0  0  0  0  0  0  0  0  0
    5.4662   -4.1378   -1.0173 C   0  0  0  0  0  0  0  0  0  0  0  0
    8.6391    2.0592    1.4188 C   0  0  0  0  0  0  0  0  0  0  0  0
    6.7130   -4.5842   -0.5985 C   0  0  0  0  0  0  0  0  0  0  0  0
   -7.5296    1.0882    0.1737 C   0  0  0  0  0  0  0  0  0  0  0  0
   -4.0246   -2.1578    1.2637 C   0  0  0  0  0  0  0  0  0  0  0  0
   -8.9784   -0.9777   -0.9743 C   0  0  0  0  0  0  0  0  0  0  0  0
   -5.5833   -4.1219    0.0814 C   0  0  0  0  0  0  0  0  0  0  0  0
   -8.7721    1.3547   -0.3938 C   0  0  0  0  0  0  0  0  0  0  0  0
   -3.5625   -3.4699    1.2263 C   0  0  0  0  0  0  0  0  0  0  0  0
   -9.4977    0.3193   -0.9689 C   0  0  0  0  0  0  0  0  0  0  0  0
   -4.3438   -4.4538    0.6339 C   0  0  0  0  0  0  0  0  0  0  0  0
  1  2  2  0
  1  3  2  0
  1  5  1  0
  1 11  1  0
  4 12  1  0
  4 13  1  0
  5 18  1  0
  6 16  2  0
  6 17  1  0
  7 19  1  0
  7 24  1  0
  8 29  2  0
  8 30  1  0
  9 10  1  0
  9 11  1  0
 10 12  1  0
 13 14  2  0
 13 15  1  0
 14 16  1  0
 14 22  1  0
 15 17  2  0
 15 23  1  0
 16 25  1  0
 17 26  1  0
 18 27  2  0
 18 28  1  0
 19 20  2  0
 19 21  1  0
 20 29  1  0
 20 37  1  0
 21 30  2  0
 21 38  1  0
 22 33  2  0
 23 34  2  0
 24 31  2  0
 24 32  1  0
 25 35  2  0
 26 36  2  0
 27 31  1  0
 28 32  2  0
 29 39  1  0
 30 40  1  0
 33 35  1  0
 34 36  1  0
 37 41  2  0
 38 42  2  0
 39 43  2  0
 40 44  2  0
 41 43  1  0
 42 44  1  0
M  END
>  <PUBCHEM_COMPOUND_CID>  (1) 
48020

>  <PUBCHEM_CONFORMER_RMSD>  (1) 
1.4

>  <PUBCHEM_CONFORMER_DIVERSEORDER>  (1) 
1
84
97
88
160
191
54
185
72
26
55
86
173
42
21
130
210
92
211
51
186
136
13
2
19
37
73
155
176
102
146
125
208
157
93
165
164
170
207
197
171
35
120
12
178
139
153
32
56
24
127
101
169
190
15
152
214
116
161
154
213
85
25
95
159
167
109
61
98
23
118
74
121
135
110
81
91
206
134
114
70
131
129
128
57
59
6
150
123
34
27
47
203
187
193
111
188
144
60
181
83
77
31
71
209
43
103
149
184
69
156
82
30
115
89
45
14
132
46
65
67
11
112
105
80
124
200
66
147
33
177
87
175
137
44
104
199
217
20
179
3
195
36
180
29
48
39
22
75
76
182
79
41
148
133
183
151
4
168
78
90
117
189
40
205
141
172
143
216
94
196
107
145
28
18
126
50
212
113
10
194
5
108
63
99
52
174
122
106
119
96
162
166
17
16
100
9
53
8
201
198
192
58
163
64
49
68
7
38
158
138
202
215
142
140
62
204

>  <PUBCHEM_MMFF94_PARTIAL_CHARGES>  (1) 
61
1 1.33
11 0.11
12 0.37
13 0.1
16 0.31
17 0.31
18 0.2
19 0.1
2 -0.65
22 -0.15
23 -0.15
24 0.1
25 -0.15
26 -0.15
27 -0.15
28 -0.15
29 0.31
3 -0.65
30 0.31
31 -0.15
32 -0.15
33 -0.15
34 -0.15
35 -0.15
36 -0.15
37 -0.15
38 -0.15
39 -0.15
4 -0.87
40 -0.15
41 -0.15
42 -0.15
43 -0.15
44 -0.15
5 -0.76
53 0.4
54 0.42
55 0.15
56 0.15
57 0.4
58 0.15
59 0.15
6 -0.62
60 0.15
61 0.15
62 0.15
63 0.15
64 0.15
65 0.15
66 0.15
67 0.15
68 0.15
69 0.15
7 -0.6
70 0.15
71 0.15
72 0.15
73 0.15
74 0.15
75 0.15
8 -0.62

>  <PUBCHEM_EFFECTIVE_ROTOR_COUNT>  (1) 
10

>  <PUBCHEM_PHARMACOPHORE_FEATURES>  (1) 
16
1 2 acceptor
1 3 acceptor
1 4 cation
1 4 donor
1 5 donor
1 6 acceptor
1 7 cation
1 7 donor
1 8 acceptor
6 14 16 22 25 33 35 rings
6 15 17 23 26 34 36 rings
6 18 24 27 28 31 32 rings
6 20 29 37 39 41 43 rings
6 21 30 38 40 42 44 rings
6 6 13 14 15 16 17 rings
6 8 19 20 21 29 30 rings

>  <PUBCHEM_HEAVY_ATOM_COUNT>  (1) 
44

>  <PUBCHEM_ATOM_DEF_STEREO_COUNT>  (1) 
0

>  <PUBCHEM_ATOM_UDEF_STEREO_COUNT>  (1) 
0

>  <PUBCHEM_BOND_DEF_STEREO_COUNT>  (1) 
0

>  <PUBCHEM_BOND_UDEF_STEREO_COUNT>  (1) 
0

>  <PUBCHEM_ISOTOPIC_ATOM_COUNT>  (1) 
0

>  <PUBCHEM_COMPONENT_COUNT>  (1) 
1

>  <PUBCHEM_CACTVS_TAUTO_COUNT>  (1) 
4

>  <PUBCHEM_CONFORMER_ID>  (1) 
0000BB9400000001

>  <PUBCHEM_MMFF94_ENERGY>  (1) 
174.0339

>  <PUBCHEM_FEATURE_SELFOVERLAP>  (1) 
81.341

>  <PUBCHEM_SHAPE_FINGERPRINT>  (1) 
10100884 174 18261112937973713266
11103572 95 18411419471202301477
12758862 65 17918278662100893328
1361 4 18412267208106028776
13782708 43 18045221528210540056
13811026 1 18410292527386349233
15911013 46 18341898523415179913
19301676 85 18334864922437537659
21585480 29 18411422830483820914
24204213 148 17458893852911495634
24983565 74 17972594390928278434
32027 91 18338523044846643949
3918712 181 18335977589001905123
50009960 94 18268991058675845997
6126387 218 18272088284712201177
99344 41 18409167739982297826

>  <PUBCHEM_SHAPE_MULTIPOLES>  (1) 
872.71
34.89
6.73
1.45
7.94
2.55
0.14
18.61
-3.19
2.85
0.12
0.71
-0.51
2.71

>  <PUBCHEM_SHAPE_SELFOVERLAP>  (1) 
1941.089

>  <PUBCHEM_SHAPE_VOLUME>  (1) 
463.2

>  <PUBCHEM_COORDINATE_TYPE>  (1) 
2
5
10

$$$$
