48035
     RDKit          3D

 22 26  0  0  1  0  0  0  0  0999 V2000
    3.0660    1.3121    1.4998 O   0  0  0  0  0  0  0  0  0  0  0  0
    3.9761   -0.0490   -1.7217 O   0  0  0  0  0  0  0  0  0  0  0  0
    1.3385    0.3909    0.0999 C   0  0  0  0  0  0  0  0  0  0  0  0
    1.1121   -1.0097    0.1665 C   0  0  0  0  0  0  0  0  0  0  0  0
    2.7720    0.9160    0.1582 C   0  0  0  0  0  0  0  0  0  0  0  0
   -1.0757    0.7763   -0.0193 C   0  0  0  0  0  0  0  0  0  0  0  0
    0.2410    1.2962    0.0328 C   0  0  0  0  0  0  0  0  0  0  0  0
   -1.3009   -0.6255    0.0098 C   0  0  0  0  0  0  0  0  0  0  0  0
   -0.2133   -1.5314    0.1045 C   0  0  0  0  0  0  0  0  0  0  0  0
    3.8440   -0.0828   -0.3026 C   0  0  0  0  0  0  0  0  0  0  0  0
   -2.1878    1.6607   -0.0994 C   0  0  0  0  0  0  0  0  0  0  0  0
   -2.6366   -1.1143   -0.0518 C   0  0  0  0  0  0  0  0  0  0  0  0
    2.2798   -1.9027    0.3279 C   0  0  0  0  0  0  0  0  0  0  0  0
    3.5280   -1.4873    0.0871 C   0  0  0  0  0  0  0  0  0  0  0  0
    0.3884    2.7041    0.0241 C   0  0  0  0  0  0  0  0  0  0  0  0
   -0.5235   -2.9150    0.1190 C   0  0  0  0  0  0  0  0  0  0  0  0
   -3.4865    1.1500   -0.1584 C   0  0  0  0  0  0  0  0  0  0  0  0
   -3.7081   -0.2218   -0.1362 C   0  0  0  0  0  0  0  0  0  0  0  0
   -1.9882    3.0436   -0.1170 C   0  0  0  0  0  0  0  0  0  0  0  0
   -2.8858   -2.4885   -0.0274 C   0  0  0  0  0  0  0  0  0  0  0  0
   -0.7054    3.5636   -0.0516 C   0  0  0  0  0  0  0  0  0  0  0  0
   -1.8336   -3.3855    0.0556 C   0  0  0  0  0  0  0  0  0  0  0  0
  1  5  1  0
  2 10  1  0
  3  4  2  0
  3  5  1  0
  3  7  1  0
  4  9  1  0
  4 13  1  0
  5 10  1  0
  6  7  2  0
  6  8  1  0
  6 11  1  0
  7 15  1  0
  8  9  2  0
  8 12  1  0
  9 16  1  0
 10 14  1  0
 11 17  1  0
 11 19  2  0
 12 18  1  0
 12 20  2  0
 13 14  2  0
 15 21  2  0
 16 22  2  0
 17 18  2  0
 19 21  1  0
 20 22  1  0
M  END
>  <PUBCHEM_COMPOUND_CID>  (1) 
48035

>  <PUBCHEM_CONFORMER_RMSD>  (1) 
0.6

>  <PUBCHEM_CONFORMER_DIVERSEORDER>  (1) 
1

>  <PUBCHEM_MMFF94_PARTIAL_CHARGES>  (1) 
28
1 -0.68
10 0.42
13 -0.18
14 -0.29
15 -0.15
16 -0.15
17 -0.15
18 -0.15
19 -0.15
2 -0.68
20 -0.15
21 -0.15
22 -0.15
25 0.15
26 0.15
27 0.15
28 0.15
29 0.15
3 -0.14
30 0.15
31 0.15
32 0.15
33 0.15
34 0.15
35 0.4
36 0.4
4 0.03
5 0.42

>  <PUBCHEM_EFFECTIVE_ROTOR_COUNT>  (1) 
0.4

>  <PUBCHEM_PHARMACOPHORE_FEATURES>  (1) 
9
1 1 acceptor
1 1 donor
1 2 acceptor
1 2 donor
6 3 4 5 10 13 14 rings
6 3 4 6 7 8 9 rings
6 6 7 11 15 19 21 rings
6 6 8 11 12 17 18 rings
6 8 9 12 16 20 22 rings

>  <PUBCHEM_HEAVY_ATOM_COUNT>  (1) 
22

>  <PUBCHEM_ATOM_DEF_STEREO_COUNT>  (1) 
2

>  <PUBCHEM_ATOM_UDEF_STEREO_COUNT>  (1) 
0

>  <PUBCHEM_BOND_DEF_STEREO_COUNT>  (1) 
0

>  <PUBCHEM_BOND_UDEF_STEREO_COUNT>  (1) 
0

>  <PUBCHEM_ISOTOPIC_ATOM_COUNT>  (1) 
0

>  <PUBCHEM_COMPONENT_COUNT>  (1) 
1

>  <PUBCHEM_CACTVS_TAUTO_COUNT>  (1) 
1

>  <PUBCHEM_CONFORMER_ID>  (1) 
0000BBA300000001

>  <PUBCHEM_MMFF94_ENERGY>  (1) 
76.9532

>  <PUBCHEM_FEATURE_SELFOVERLAP>  (1) 
45.817

>  <PUBCHEM_SHAPE_FINGERPRINT>  (1) 
10319926 262 18197189535706155658
10411042 1 18194120952169776018
10498660 4 18408886273784711420
10616163 171 18193278485728179227
10693767 8 17985519249065312407
10759866 29 17968667016770588190
10967382 1 18410289237742022331
1100329 8 18338239374956600065
11578080 2 16955304474167219244
11680986 33 18124591140048715569
12173636 292 18193833752011625053
12553582 1 18337392772003444667
13027679 85 18410294756980862525
13140716 1 18266454317714882339
13583140 156 14117802401077330631
138480 1 16104729520307821225
14081887 123 18341315778088742992
14178342 30 18337093662154455858
14223421 5 18270111460834684336
14790565 3 18195259831852889545
15042514 8 18408605846543085899
15196674 1 18410291372045362811
16728300 4 16318320189289406376
16752209 62 18338228246057883131
16945 1 18265612267822595323
19591789 44 18194967331504303579
19930381 70 17040914841829015443
20028762 73 18129666421958053111
20510252 161 18270397174775441081
20739085 24 18048623450877062001
20775438 99 17048469492146070431
20905425 154 18125441912539714559
21267235 1 18410019814174941131
23184049 29 18194117657997541821
2334 1 18410007719689018699
23557571 272 18343589564261879356
23559900 14 18413669111248907876
238 59 16310738494154692021
2748010 2 18412257359002291707
3091708 16 9276553756506816883
335352 9 17689995635385300342
34934 24 18337943592842491667
350125 39 18049163271861251664
352729 6 17977943488646238203
7364860 26 17546729716936305669
7832392 63 18339641256065486643
81228 2 18337107976858499185
9709674 26 18343021052078136846

>  <PUBCHEM_SHAPE_MULTIPOLES>  (1) 
441.01
6.12
4.1
0.8
3.34
0.38
-0.06
-0.75
-0.72
-2.55
0.17
0.64
0.1
0.19

>  <PUBCHEM_SHAPE_SELFOVERLAP>  (1) 
1024.698

>  <PUBCHEM_SHAPE_VOLUME>  (1) 
224.7

>  <PUBCHEM_COORDINATE_TYPE>  (1) 
2
5
10

$$$$
