4803
     RDKit          2D

 31 33  0  0  1  0  0  0  0  0999 V2000
    0.0000    0.0000    0.0000 S   0  0  0  0  0  0  0  0  0  0  0  0
    0.0000    0.0000    0.0000 P   0  0  0  0  0  0  0  0  0  0  0  0
    0.0000    0.0000    0.0000 P   0  0  0  0  0  0  0  0  0  0  0  0
    0.0000    0.0000    0.0000 P   0  0  0  0  0  0  0  0  0  0  0  0
    0.0000    0.0000    0.0000 O   0  0  0  0  0  0  0  0  0  0  0  0
    0.0000    0.0000    0.0000 O   0  0  0  0  0  0  0  0  0  0  0  0
    0.0000    0.0000    0.0000 O   0  0  0  0  0  0  0  0  0  0  0  0
    0.0000    0.0000    0.0000 O   0  0  0  0  0  0  0  0  0  0  0  0
    0.0000    0.0000    0.0000 O   0  0  0  0  0  0  0  0  0  0  0  0
    0.0000    0.0000    0.0000 O   0  0  0  0  0  0  0  0  0  0  0  0
    0.0000    0.0000    0.0000 O   0  0  0  0  0  0  0  0  0  0  0  0
    0.0000    0.0000    0.0000 O   0  0  0  0  0  0  0  0  0  0  0  0
    0.0000    0.0000    0.0000 O   0  0  0  0  0  0  0  0  0  0  0  0
    0.0000    0.0000    0.0000 O   0  0  0  0  0  0  0  0  0  0  0  0
    0.0000    0.0000    0.0000 O   0  0  0  0  0  0  0  0  0  0  0  0
    0.0000    0.0000    0.0000 O   0  0  0  0  0  0  0  0  0  0  0  0
    0.0000    0.0000    0.0000 N   0  0  0  0  0  0  0  0  0  0  0  0
    0.0000    0.0000    0.0000 N   0  0  0  0  0  0  0  0  0  0  0  0
    0.0000    0.0000    0.0000 N   0  0  0  0  0  0  0  0  0  0  0  0
    0.0000    0.0000    0.0000 N   0  0  0  0  0  0  0  0  0  0  0  0
    0.0000    0.0000    0.0000 N   0  0  0  0  0  0  0  0  0  0  0  0
    0.0000    0.0000    0.0000 C   0  0  0  0  0  0  0  0  0  0  0  0
    0.0000    0.0000    0.0000 C   0  0  0  0  0  0  0  0  0  0  0  0
    0.0000    0.0000    0.0000 C   0  0  0  0  0  0  0  0  0  0  0  0
    0.0000    0.0000    0.0000 C   0  0  0  0  0  0  0  0  0  0  0  0
    0.0000    0.0000    0.0000 C   0  0  0  0  0  0  0  0  0  0  0  0
    0.0000    0.0000    0.0000 C   0  0  0  0  0  0  0  0  0  0  0  0
    0.0000    0.0000    0.0000 C   0  0  0  0  0  0  0  0  0  0  0  0
    0.0000    0.0000    0.0000 C   0  0  0  0  0  0  0  0  0  0  0  0
    0.0000    0.0000    0.0000 C   0  0  0  0  0  0  0  0  0  0  0  0
    0.0000    0.0000    0.0000 C   0  0  0  0  0  0  0  0  0  0  0  0
  1  4  1  0
  2  8  1  0
  2  9  1  0
  2 10  1  0
  2 11  2  0
  3  9  1  0
  3 12  1  0
  3 13  1  0
  3 14  2  0
  4 12  1  0
  4 15  1  0
  4 16  2  0
  5 24  1  0
  5 25  1  0
  6 22  1  0
  7 23  1  0
  8 26  1  0
 17 24  1  0
 17 27  1  0
 17 28  1  0
 18 28  2  0
 18 29  1  0
 19 27  1  0
 19 31  2  0
 20 30  2  0
 20 31  1  0
 21 30  1  0
 22 23  1  0
 22 24  1  0
 23 25  1  0
 25 26  1  0
 27 29  2  0
 29 30  1  0
M  END
>  <PUBCHEM_COMPOUND_CID>  (1) 
4803

>  <PUBCHEM_CONFORMER_RMSD>  (1) 
1.6

>  <PUBCHEM_CONFORMER_DIVERSEORDER>  (1) 
38
133
208
246
57
189
166
49
159
4
33
84
59
86
155
18
110
218
44
180
170
12
10
205
93
158
243
1
102
101
19
211
114
58
192
168
186
162
160
94
142
53
66
215
73
56
157
147
191
46
139
182
176
45
134
71
60
212
13
37
150
64
167
174
203
90
230
138
15
128
8
116
87
72
92
151
9
148
112
61
3
188
98
234
68
16
169
82
29
117
79
51
229
23
40
7
111
6
2
11
32
136
161
145
5
42
100
109
223
34
153
144
233
245
236
222
213
69
115
113
54
132
43
140
107
235
131
52
99
22
96
130
163
244
171
177
135
65
74
241
224
50
55
239
108
17
154
30
196
190
194
27
41
210
85
126
193
123
156
227
179
88
141
24
78
183
242
105
209
124
143
122
91
89
207
137
97
48
149
204
152
77
129
125
214
249
39
35
14
146
199
202
21
217
103
118
80
216
28
62
20
67
228
76
240
25
221
175
232
75
195
31
106
185
95
181
127
201
219
172
63
225
220
237
81
70
248
165
197
173
200
178
206
119
238
231
83
120
164
47
36
121
247
26
184
226
198
187
104

>  <PUBCHEM_MMFF94_PARTIAL_CHARGES>  (1) 
41
1 -0.43
10 -0.77
11 -0.7
12 -0.54
13 -0.77
14 -0.7
15 -0.77
16 -0.7
17 0.05
18 -0.57
19 -0.57
2 1.51
20 -0.62
21 -0.9
22 0.28
23 0.28
24 0.54
25 0.28
26 0.28
27 0.11
28 0.04
29 0.23
3 1.51
30 0.41
31 0.47
38 0.4
39 0.4
4 1.49
40 0.15
41 0.15
42 0.4
43 0.4
44 0.5
45 0.5
46 0.18
47 0.5
5 -0.56
6 -0.68
7 -0.68
8 -0.55
9 -0.54

>  <PUBCHEM_EFFECTIVE_ROTOR_COUNT>  (1) 
9

>  <PUBCHEM_PHARMACOPHORE_FEATURES>  (1) 
20
1 10 acceptor
1 11 acceptor
1 13 acceptor
1 14 acceptor
1 15 acceptor
1 16 acceptor
1 21 cation
1 21 donor
1 5 acceptor
1 6 acceptor
1 6 donor
1 7 acceptor
1 7 donor
3 17 18 28 cation
3 17 19 27 cation
3 19 20 31 cation
4 1 4 15 16 anion
5 17 18 27 28 29 rings
5 5 22 23 24 25 rings
6 19 20 27 29 30 31 rings

>  <PUBCHEM_HEAVY_ATOM_COUNT>  (1) 
31

>  <PUBCHEM_ATOM_DEF_STEREO_COUNT>  (1) 
0

>  <PUBCHEM_ATOM_UDEF_STEREO_COUNT>  (1) 
4

>  <PUBCHEM_BOND_DEF_STEREO_COUNT>  (1) 
0

>  <PUBCHEM_BOND_UDEF_STEREO_COUNT>  (1) 
0

>  <PUBCHEM_ISOTOPIC_ATOM_COUNT>  (1) 
0

>  <PUBCHEM_COMPONENT_COUNT>  (1) 
1

>  <PUBCHEM_CACTVS_TAUTO_COUNT>  (1) 
6

$$$$
