48053
     RDKit          3D

 20 22  0  0  0  0  0  0  0  0999 V2000
    3.2301    0.2135    0.0979 S   0  0  0  0  0  0  0  0  0  0  0  0
   -3.5795   -0.1958   -0.1467 N   0  0  0  0  0  0  0  0  0  0  0  0
    0.1337    0.0064    0.3977 N   0  0  0  0  0  0  0  0  0  0  0  0
   -0.1997    2.3789    0.1253 N   0  0  0  0  0  0  0  0  0  0  0  0
   -2.1460   -0.0841   -0.5142 C   0  0  0  0  0  0  0  0  0  0  0  0
   -1.2934   -0.0507    0.7419 C   0  0  0  0  0  0  0  0  0  0  0  0
   -4.0131    0.9910    0.7248 C   0  0  0  0  0  0  0  0  0  0  0  0
   -4.4637   -0.2147   -1.4013 C   0  0  0  0  0  0  0  0  0  0  0  0
   -3.8414   -1.4868    0.6411 C   0  0  0  0  0  0  0  0  0  0  0  0
    0.8180   -1.2148    0.1834 C   0  0  0  0  0  0  0  0  0  0  0  0
    0.6513    1.3132    0.1794 C   0  0  0  0  0  0  0  0  0  0  0  0
    2.2168   -1.2478    0.0215 C   0  0  0  0  0  0  0  0  0  0  0  0
    2.0265    1.5134    0.0072 C   0  0  0  0  0  0  0  0  0  0  0  0
    0.1388   -2.4509    0.0989 C   0  0  0  0  0  0  0  0  0  0  0  0
    2.8903   -2.4650   -0.1917 C   0  0  0  0  0  0  0  0  0  0  0  0
    2.5048    2.8131   -0.2180 C   0  0  0  0  0  0  0  0  0  0  0  0
    0.8122   -3.6570   -0.1169 C   0  0  0  0  0  0  0  0  0  0  0  0
    2.1903   -3.6645   -0.2596 C   0  0  0  0  0  0  0  0  0  0  0  0
    0.2937    3.6169   -0.0962 C   0  0  0  0  0  0  0  0  0  0  0  0
    1.6303    3.8858   -0.2745 C   0  0  0  0  0  0  0  0  0  0  0  0
  1 12  1  0
  1 13  1  0
  2  5  1  0
  2  7  1  0
  2  8  1  0
  2  9  1  0
  3  6  1  0
  3 10  1  0
  3 11  1  0
  4 11  1  0
  4 19  2  0
  5  6  1  0
 10 12  2  0
 10 14  1  0
 11 13  2  0
 12 15  1  0
 13 16  1  0
 14 17  2  0
 15 18  2  0
 16 20  2  0
 17 18  1  0
 19 20  1  0
M  CHG  1   2   1
M  END
>  <PUBCHEM_COMPOUND_CID>  (1) 
48053

>  <PUBCHEM_CONFORMER_RMSD>  (1) 
0.6

>  <PUBCHEM_CONFORMER_DIVERSEORDER>  (1) 
2
3
1

>  <PUBCHEM_MMFF94_PARTIAL_CHARGES>  (1) 
27
1 -0.2
10 0.1
11 0.41
12 0.1
13 0.1
14 -0.15
15 -0.15
16 -0.15
17 -0.15
18 -0.15
19 0.16
2 -1.01
20 -0.15
3 -0.57
34 0.15
35 0.15
36 0.15
37 0.15
38 0.15
39 0.15
4 -0.62
40 0.15
5 0.5
6 0.37
7 0.5
8 0.5
9 0.5

>  <PUBCHEM_EFFECTIVE_ROTOR_COUNT>  (1) 
3.4

>  <PUBCHEM_PHARMACOPHORE_FEATURES>  (1) 
6
1 2 cation
1 3 cation
1 4 acceptor
6 1 3 10 11 12 13 rings
6 10 12 14 15 17 18 rings
6 4 11 13 16 19 20 rings

>  <PUBCHEM_HEAVY_ATOM_COUNT>  (1) 
20

>  <PUBCHEM_ATOM_DEF_STEREO_COUNT>  (1) 
0

>  <PUBCHEM_ATOM_UDEF_STEREO_COUNT>  (1) 
0

>  <PUBCHEM_BOND_DEF_STEREO_COUNT>  (1) 
0

>  <PUBCHEM_BOND_UDEF_STEREO_COUNT>  (1) 
0

>  <PUBCHEM_ISOTOPIC_ATOM_COUNT>  (1) 
0

>  <PUBCHEM_COMPONENT_COUNT>  (1) 
1

>  <PUBCHEM_CACTVS_TAUTO_COUNT>  (1) 
1

>  <PUBCHEM_CONFORMER_ID>  (1) 
0000BBB500000002

>  <PUBCHEM_MMFF94_ENERGY>  (1) 
78.8222

>  <PUBCHEM_FEATURE_SELFOVERLAP>  (1) 
30.478

>  <PUBCHEM_SHAPE_FINGERPRINT>  (1) 
10411042 1 18194403277570973883
10693767 8 18202846547988847342
10967382 1 18410857659483882698
1100329 8 18266456701933499168
11578080 2 17270563929799866369
116883 192 17906732505550175837
12173636 292 17690841585245327525
12553582 1 18194406580585135587
12730499 353 18263646341675748987
12788726 201 17471009173194230035
13009979 54 17774166695482728963
13140716 1 16031826028466711584
13583140 156 16953907011888329955
138480 1 18338519642435421290
14790565 3 18338249257640256308
15042514 8 17184756788089946682
15502722 9 18338799021821642815
16087824 20 17401492546503027153
16945 1 18410584993643189376
17134986 127 18120653793041099764
17539 30 17546997538164620350
18785283 64 18262813972249188907
19591789 44 17906178703924879619
19930381 70 18337674238722198897
20645477 70 18335128826502066911
20775438 99 17400871425184807221
21197605 99 17687479266257205723
21478907 32 17761772867038212787
21524375 3 17827915444769129841
221490 88 18336273417880313227
2255824 54 18411983584891412799
2334 1 17834399295461733760
23419403 2 17462247358585163990
23557571 272 17479738217761905726
23559900 14 18410565198318510579
23598291 2 18131352986362101421
238 59 17757787373615969309
266924 87 18265612083471727020
2748010 2 18122616168215226280
3060560 45 18338791329234470692
3091708 16 9071881870304091784
350125 39 17832995222938584722
352729 6 17907299110515491427
3886686 26 17406521064280010104
474 4 18339641243412362113
54173680 148 17473827225796149834
633830 44 18057625337193668309
6443956 14 18336829671625791997
7164475 11 17761496889715145430
7364860 26 18410293631461878617
81228 2 17833822777226784713
8272917 22 18412547630678621207
84936 182 18130226085353995457

>  <PUBCHEM_SHAPE_MULTIPOLES>  (1) 
400.5
6.37
5.21
0.82
8.53
0.78
0.1
-0.92
0.64
-5.03
0.47
0.66
-0.03
-0.01

>  <PUBCHEM_SHAPE_SELFOVERLAP>  (1) 
838.086

>  <PUBCHEM_SHAPE_VOLUME>  (1) 
229.3

>  <PUBCHEM_COORDINATE_TYPE>  (1) 
2
5
10

$$$$
