4806
     RDKit          3D

 27 29  0  0  0  0  0  0  0  0999 V2000
    4.4050    1.5517    0.1814 S   0  0  0  0  0  0  0  0  0  0  0  0
    4.0878   -2.5710    1.1412 S   0  0  0  0  0  0  0  0  0  0  0  0
    4.7596    2.5975    1.1338 O   0  0  0  0  0  0  0  0  0  0  0  0
    4.8388    1.6873   -1.2038 O   0  0  0  0  0  0  0  0  0  0  0  0
   -1.9561    0.0243   -1.8326 O   0  0  0  0  0  0  0  0  0  0  0  0
   -4.1085   -2.4650    1.6609 O   0  0  0  0  0  0  0  0  0  0  0  0
   -2.5999   -2.2523   -0.0260 O   0  0  0  0  0  0  0  0  0  0  0  0
   -1.4934    0.9445    0.2756 N   0  0  0  0  0  0  0  0  0  0  0  0
    4.9540    0.0453    0.8123 N   0  0  0  0  0  0  0  0  0  0  0  0
    4.2403   -1.2755   -1.0907 N   0  0  0  0  0  0  0  0  0  0  0  0
    2.6687    1.3734    0.2088 C   0  0  0  0  0  0  0  0  0  0  0  0
   -0.0846    1.0902    0.2529 C   0  0  0  0  0  0  0  0  0  0  0  0
    2.0041    0.8448   -0.8978 C   0  0  0  0  0  0  0  0  0  0  0  0
    1.9459    1.7594    1.3375 C   0  0  0  0  0  0  0  0  0  0  0  0
    0.6166    0.7022   -0.8757 C   0  0  0  0  0  0  0  0  0  0  0  0
    0.5585    1.6167    1.3598 C   0  0  0  0  0  0  0  0  0  0  0  0
   -3.7566    0.4392   -0.4193 C   0  0  0  0  0  0  0  0  0  0  0  0
   -2.3320    0.4392   -0.7260 C   0  0  0  0  0  0  0  0  0  0  0  0
   -4.3642   -0.6524    0.2009 C   0  0  0  0  0  0  0  0  0  0  0  0
   -4.5146    1.5602   -0.7576 C   0  0  0  0  0  0  0  0  0  0  0  0
    4.4542   -1.1623    0.2123 C   0  0  0  0  0  0  0  0  0  0  0  0
   -5.7300   -0.6230    0.4828 C   0  0  0  0  0  0  0  0  0  0  0  0
   -5.8805    1.5894   -0.4757 C   0  0  0  0  0  0  0  0  0  0  0  0
   -6.4881    0.4979    0.1445 C   0  0  0  0  0  0  0  0  0  0  0  0
   -3.5996   -1.8377    0.5664 C   0  0  0  0  0  0  0  0  0  0  0  0
    3.6127   -3.3836   -0.2925 C   0  0  0  0  0  0  0  0  0  0  0  0
    3.7619   -2.5402   -1.3733 C   0  0  0  0  0  0  0  0  0  0  0  0
  1  3  2  0
  1  4  2  0
  1  9  1  0
  1 11  1  0
  2 21  1  0
  2 26  1  0
  5 18  2  0
  6 25  1  0
  7 25  2  0
  8 12  1  0
  8 18  1  0
  9 21  1  0
 10 21  2  0
 10 27  1  0
 11 13  2  0
 11 14  1  0
 12 15  2  0
 12 16  1  0
 13 15  1  0
 14 16  2  0
 17 18  1  0
 17 19  2  0
 17 20  1  0
 19 22  1  0
 19 25  1  0
 20 23  2  0
 22 24  2  0
 23 24  1  0
 26 27  2  0
M  END
>  <PUBCHEM_COMPOUND_CID>  (1) 
4806

>  <PUBCHEM_CONFORMER_RMSD>  (1) 
0.8

>  <PUBCHEM_CONFORMER_DIVERSEORDER>  (1) 
1
84
107
83
92
118
129
128
38
135
2
140
125
131
23
134
106
47
141
28
109
24
70
80
14
85
117
139
144
116
124
12
130
137
132
63
33
77
71
114
15
143
65
86
53
97
146
89
62
3
66
121
61
138
115
110
120
99
43
74
81
52
69
76
102
13
142
26
127
82
90
37
95
8
98
93
126
111
100
46
42
22
60
103
79
67
27
41
58
101
36
54
73
105
51
78
91
9
59
108
72
119
35
57
5
122
56
75
21
49
147
4
88
25
55
34
19
68
133
39
112
7
16
45
10
30
123
87
64
113
136
6
96
48
145
94
44
104
29
18
32
17
20
31
40
11
50

>  <PUBCHEM_MMFF94_PARTIAL_CHARGES>  (1) 
40
1 1.45
10 -0.57
11 -0.01
12 0.12
13 -0.15
14 -0.15
15 -0.15
16 -0.15
17 0.09
18 0.54
19 0.09
2 -0.08
20 -0.15
21 0.52
22 -0.15
23 -0.15
24 -0.15
25 0.63
26 -0.11
27 0.08
28 0.15
29 0.15
3 -0.65
30 0.15
31 0.15
32 0.37
33 0.42
34 0.15
35 0.15
36 0.15
37 0.15
38 0.15
39 0.15
4 -0.65
40 0.5
5 -0.57
6 -0.65
7 -0.57
8 -0.55
9 -0.7

>  <PUBCHEM_EFFECTIVE_ROTOR_COUNT>  (1) 
7

>  <PUBCHEM_PHARMACOPHORE_FEATURES>  (1) 
12
1 10 acceptor
1 3 acceptor
1 4 acceptor
1 5 acceptor
1 6 acceptor
1 7 acceptor
1 8 donor
1 9 donor
3 6 7 25 anion
5 2 10 21 26 27 rings
6 11 12 13 14 15 16 rings
6 17 19 20 22 23 24 rings

>  <PUBCHEM_HEAVY_ATOM_COUNT>  (1) 
27

>  <PUBCHEM_ATOM_DEF_STEREO_COUNT>  (1) 
0

>  <PUBCHEM_ATOM_UDEF_STEREO_COUNT>  (1) 
0

>  <PUBCHEM_BOND_DEF_STEREO_COUNT>  (1) 
0

>  <PUBCHEM_BOND_UDEF_STEREO_COUNT>  (1) 
0

>  <PUBCHEM_ISOTOPIC_ATOM_COUNT>  (1) 
0

>  <PUBCHEM_COMPONENT_COUNT>  (1) 
1

>  <PUBCHEM_CACTVS_TAUTO_COUNT>  (1) 
4

>  <PUBCHEM_CONFORMER_ID>  (1) 
000012C600000001

>  <PUBCHEM_MMFF94_ENERGY>  (1) 
66.5742

>  <PUBCHEM_FEATURE_SELFOVERLAP>  (1) 
60.977

>  <PUBCHEM_SHAPE_FINGERPRINT>  (1) 
10670039 82 12685370691705235670
10673678 19 18117570745743114300
11595378 159 15482399668049945826
117089 54 17483693195563319582
11796584 16 18335420149211111498
12128747 34 18339923710590023221
12236239 1 14189586251660020261
12596602 18 16128084658957745690
12788726 201 17346607352220027872
13533116 47 18272088270855913344
13583140 156 18129659832670533861
13617811 41 16805041805427944679
13782708 43 18410294710089936103
14251757 17 18334575715907621818
14910302 57 18040431071094299287
15183329 4 18341335509411178049
15250474 111 18199736102307599823
15419008 42 17975958891590832829
15537594 2 17917713534799494100
15664445 248 17895199934946990732
15799311 1 18262254268963975923
16067689 134 17404307296053524665
17349148 13 15913607272403014481
17844677 252 18186522081386634957
1813 80 16588025710279158581
1979834 28 17488736766883921606
19958102 18 18114173078692162045
20645477 70 18410573964288570352
21279426 13 18339360735077684197
21315759 148 18259990405056875897
21421861 104 18202273685619534372
21623969 137 18341613745887621490
21859007 373 17678443183278229981
23522609 53 13335592151714365583
23559900 14 18409449189114851580
239999 70 18412829071491090718
25222932 49 18058729259462681534
25269216 80 16588888887390523707
3004659 81 18335703806569174526
345986 75 17559388063979674394
34797466 226 17530971297428752925
3633792 109 18264198133573388301
3680242 22 18191587454030297850
394071 54 16773789333948376344
4073 2 18261395597648584897
4144715 1 18261117391802044841
4340502 62 18411131472771856192
460360 51 18269011828953131345
5104073 3 18412267216337488433
5265222 85 17976831105624449284
8509985 295 17846493716644525588
9995097 60 18410855473081830339

>  <PUBCHEM_SHAPE_MULTIPOLES>  (1) 
519.06
15.42
3.22
1.34
11.13
2.04
-0.02
1.5
0.43
-3.84
0.56
-0.6
0.11
1.73

>  <PUBCHEM_SHAPE_SELFOVERLAP>  (1) 
1103.293

>  <PUBCHEM_SHAPE_VOLUME>  (1) 
288.3

>  <PUBCHEM_COORDINATE_TYPE>  (1) 
2
5
10

$$$$
