48078
     RDKit          3D

 25 27  0  0  0  0  0  0  0  0999 V2000
   -1.8578   -0.3181   -2.6291 Cl  0  0  0  0  0  0  0  0  0  0  0  0
    5.3568   -0.1696   -0.4366 O   0  0  0  0  0  0  0  0  0  0  0  0
    0.1932    1.2884    0.2932 O   0  0  0  0  0  0  0  0  0  0  0  0
   -0.5057    2.0500   -1.7588 O   0  0  0  0  0  0  0  0  0  0  0  0
    2.9831    0.9643    0.6502 N   0  0  0  0  0  0  0  0  0  0  0  0
    4.0921    0.5312    1.5117 C   0  0  0  0  0  0  0  0  0  0  0  0
    3.4966    1.3707   -0.6654 C   0  0  0  0  0  0  0  0  0  0  0  0
    2.2357    2.0539    1.2748 C   0  0  0  0  0  0  0  0  0  0  0  0
    4.8646   -0.5969    0.8341 C   0  0  0  0  0  0  0  0  0  0  0  0
    4.2822    0.2221   -1.2916 C   0  0  0  0  0  0  0  0  0  0  0  0
    1.0289    2.4301    0.4301 C   0  0  0  0  0  0  0  0  0  0  0  0
   -1.4571   -0.0295   -0.8541 C   0  0  0  0  0  0  0  0  0  0  0  0
   -0.5385    1.2099   -0.8665 C   0  0  0  0  0  0  0  0  0  0  0  0
   -2.8132    0.2476   -0.1790 C   0  0  0  0  0  0  0  0  0  0  0  0
   -0.6935   -1.2526   -0.3088 C   0  0  0  0  0  0  0  0  0  0  0  0
   -3.7786   -0.7244   -0.2385 C   0  0  0  0  0  0  0  0  0  0  0  0
   -0.8730   -1.5943    1.0064 C   0  0  0  0  0  0  0  0  0  0  0  0
   -2.9910    1.4534    0.4494 C   0  0  0  0  0  0  0  0  0  0  0  0
    0.1276   -1.9381   -1.1656 C   0  0  0  0  0  0  0  0  0  0  0  0
   -5.0071   -0.4733    0.3727 C   0  0  0  0  0  0  0  0  0  0  0  0
   -0.1816   -2.7008    1.5000 C   0  0  0  0  0  0  0  0  0  0  0  0
   -4.2194    1.7047    1.0606 C   0  0  0  0  0  0  0  0  0  0  0  0
    0.8189   -3.0445   -0.6721 C   0  0  0  0  0  0  0  0  0  0  0  0
   -5.2275    0.7413    1.0222 C   0  0  0  0  0  0  0  0  0  0  0  0
    0.6642   -3.4257    0.6608 C   0  0  0  0  0  0  0  0  0  0  0  0
  1 12  1  0
  2  9  1  0
  2 10  1  0
  3 11  1  0
  3 13  1  0
  4 13  2  0
  5  6  1  0
  5  7  1  0
  5  8  1  0
  6  9  1  0
  7 10  1  0
  8 11  1  0
 12 13  1  0
 12 14  1  0
 12 15  1  0
 14 16  2  0
 14 18  1  0
 15 17  2  0
 15 19  1  0
 16 20  1  0
 17 21  1  0
 18 22  2  0
 19 23  2  0
 20 24  2  0
 21 25  2  0
 22 24  1  0
 23 25  1  0
M  END
>  <PUBCHEM_COMPOUND_CID>  (1) 
48078

>  <PUBCHEM_CONFORMER_RMSD>  (1) 
0.8

>  <PUBCHEM_CONFORMER_DIVERSEORDER>  (1) 
2
40
42
89
231
132
77
103
229
190
45
126
188
191
141
99
181
194
239
146
3
84
116
213
8
36
169
195
35
6
166
142
44
156
193
107
219
120
147
198
161
91
51
29
241
177
174
187
123
20
9
186
46
53
80
27
11
82
23
74
28
224
137
197
14
109
201
222
140
154
67
48
71
150
59
134
175
228
214
4
180
43
90
121
151
70
206
38
202
210
157
114
95
102
138
108
238
58
88
100
199
85
196
105
47
143
68
226
115
168
69
200
52
153
61
205
26
21
192
163
73
232
7
39
133
158
24
128
18
155
215
216
223
34
66
208
184
86
235
83
81
87
65
129
236
13
233
127
237
227
176
50
54
145
1
75
49
230
178
125
136
104
12
170
78
131
159
112
209
76
101
217
32
162
234
33
79
118
164
240
135
160
96
41
94
72
185
218
117
30
204
64
179
220
149
139
183
144
110
212
171
15
22
119
167
56
106
17
130
37
97
10
31
98
173
207
182
111
113
211
122
63
19
124
221
92
16
203
60
152
5
148
55
62
189
25
165
93
172
57
225

>  <PUBCHEM_MMFF94_PARTIAL_CHARGES>  (1) 
35
1 -0.29
10 0.28
11 0.28
12 0.64
13 0.66
14 -0.14
15 -0.14
16 -0.15
17 -0.15
18 -0.15
19 -0.15
2 -0.56
20 -0.15
21 -0.15
22 -0.15
23 -0.15
24 -0.15
25 -0.15
3 -0.43
38 0.15
39 0.15
4 -0.57
40 0.15
41 0.15
42 0.15
43 0.15
44 0.15
45 0.15
46 0.15
47 0.15
5 -0.81
6 0.27
7 0.27
8 0.27
9 0.28

>  <PUBCHEM_EFFECTIVE_ROTOR_COUNT>  (1) 
8.2

>  <PUBCHEM_PHARMACOPHORE_FEATURES>  (1) 
6
1 2 acceptor
1 4 acceptor
1 5 cation
6 14 16 18 20 22 24 rings
6 15 17 19 21 23 25 rings
6 2 5 6 7 9 10 rings

>  <PUBCHEM_HEAVY_ATOM_COUNT>  (1) 
25

>  <PUBCHEM_ATOM_DEF_STEREO_COUNT>  (1) 
0

>  <PUBCHEM_ATOM_UDEF_STEREO_COUNT>  (1) 
0

>  <PUBCHEM_BOND_DEF_STEREO_COUNT>  (1) 
0

>  <PUBCHEM_BOND_UDEF_STEREO_COUNT>  (1) 
0

>  <PUBCHEM_ISOTOPIC_ATOM_COUNT>  (1) 
0

>  <PUBCHEM_COMPONENT_COUNT>  (1) 
1

>  <PUBCHEM_CACTVS_TAUTO_COUNT>  (1) 
1

>  <PUBCHEM_CONFORMER_ID>  (1) 
0000BBCE00000002

>  <PUBCHEM_MMFF94_ENERGY>  (1) 
74.201

>  <PUBCHEM_FEATURE_SELFOVERLAP>  (1) 
30.446

>  <PUBCHEM_SHAPE_FINGERPRINT>  (1) 
10674148 151 18059586742005677828
11036077 3 18411422799712388986
11578080 2 17533776001689094349
12035759 4 17843934109979363807
12422481 6 18050830149048807170
12467345 10 17418376878643341719
12592029 89 18412268319885542563
12633257 1 18187080672121694090
12788726 201 17618501425055969767
13402501 40 18342182137897072206
13692114 37 18269557307634512507
14251751 93 17988918990135508861
14466204 15 18271808982097373361
14787075 74 18336555927806654247
14790565 3 18410582798673119852
15209289 33 18411981386000175457
15295992 7 18201159978460298224
15420108 30 18059009467993524213
1813 80 18113621192021386900
18769570 83 12463304578658383091
19591789 44 18410570690943203170
19930381 70 17701833089519097062
20028762 73 18128253587622531407
20832881 197 18060145310364704136
20905425 154 18054233124430292804
21330990 113 18333735693239599725
21403212 168 18200588104018808577
22956985 138 17752760234376420130
23419403 2 17680980800148127647
23558518 356 17983566700332525325
23559900 14 17917441972708113796
3298306 158 18338791213275907565
3411729 13 18197787604932065089
392239 28 18189905205740333987
404807 14 15117647530316852246
465052 167 17458635544297321041
59755656 215 18410573955878276229
6138700 20 18341901732208956014
633830 44 18201715188983209909
81228 2 17612854303281211402
9981440 41 16406437202981625137

>  <PUBCHEM_SHAPE_MULTIPOLES>  (1) 
493.77
9.53
3.17
1.72
2.09
2.03
0.68
-3.34
-2.33
0.7
-0.7
-0.01
0.07
-0.25

>  <PUBCHEM_SHAPE_SELFOVERLAP>  (1) 
1042.516

>  <PUBCHEM_SHAPE_VOLUME>  (1) 
276.3

>  <PUBCHEM_COORDINATE_TYPE>  (1) 
2
5
10

$$$$
