48084
     RDKit          3D

 24 26  0  0  1  0  0  0  0  0999 V2000
    0.6853   -0.2099    0.2833 O   0  0  0  0  0  0  0  0  0  0  0  0
   -0.2951    0.1590   -1.7679 O   0  0  0  0  0  0  0  0  0  0  0  0
    7.0445    0.4888   -0.0771 O   0  0  0  0  0  0  0  0  0  0  0  0
    4.3683   -0.4548    0.1436 N   0  0  0  0  0  0  0  0  0  0  0  0
   -2.5798   -1.1632   -0.1952 C   0  0  0  0  0  0  0  0  0  0  0  0
   -1.8249   -2.4990   -0.1632 C   0  0  0  0  0  0  0  0  0  0  0  0
   -3.8370   -1.2251    0.6828 C   0  0  0  0  0  0  0  0  0  0  0  0
   -1.6697   -0.0185    0.2460 C   0  0  0  0  0  0  0  0  0  0  0  0
   -2.7294   -3.6671   -0.5494 C   0  0  0  0  0  0  0  0  0  0  0  0
   -4.7382   -2.3955    0.2954 C   0  0  0  0  0  0  0  0  0  0  0  0
   -3.9821   -3.7201    0.3195 C   0  0  0  0  0  0  0  0  0  0  0  0
   -2.3688    1.3316    0.1902 C   0  0  0  0  0  0  0  0  0  0  0  0
   -0.3745   -0.0143   -0.5585 C   0  0  0  0  0  0  0  0  0  0  0  0
   -2.0667    2.2796    1.1467 C   0  0  0  0  0  0  0  0  0  0  0  0
   -3.2838    1.5687   -0.8155 C   0  0  0  0  0  0  0  0  0  0  0  0
    3.0316   -0.4342    0.7339 C   0  0  0  0  0  0  0  0  0  0  0  0
    1.9758   -0.2053   -0.3357 C   0  0  0  0  0  0  0  0  0  0  0  0
    5.3820   -0.7748    1.1582 C   0  0  0  0  0  0  0  0  0  0  0  0
    4.6790    0.8344   -0.4894 C   0  0  0  0  0  0  0  0  0  0  0  0
    6.7691   -0.7781    0.5219 C   0  0  0  0  0  0  0  0  0  0  0  0
    6.0822    0.7925   -1.0875 C   0  0  0  0  0  0  0  0  0  0  0  0
   -2.7073    3.5176    1.0957 C   0  0  0  0  0  0  0  0  0  0  0  0
   -3.9244    2.8068   -0.8666 C   0  0  0  0  0  0  0  0  0  0  0  0
   -3.6361    3.7811    0.0890 C   0  0  0  0  0  0  0  0  0  0  0  0
  1 13  1  0
  1 17  1  0
  2 13  2  0
  3 20  1  0
  3 21  1  0
  4 16  1  0
  4 18  1  0
  4 19  1  0
  5  6  1  0
  5  7  1  0
  5  8  1  0
  6  9  1  0
  7 10  1  0
  8 12  1  0
  8 13  1  0
  9 11  1  0
 10 11  1  0
 12 14  2  0
 12 15  1  0
 14 22  1  0
 15 23  2  0
 16 17  1  0
 18 20  1  0
 19 21  1  0
 22 24  2  0
 23 24  1  0
M  END
>  <PUBCHEM_COMPOUND_CID>  (1) 
48084

>  <PUBCHEM_CONFORMER_RMSD>  (1) 
1

>  <PUBCHEM_CONFORMER_DIVERSEORDER>  (1) 
1
125
107
82
100
34
8
122
3
56
87
45
78
20
85
37
113
66
31
120
88
74
6
69
118
55
86
15
126
57
9
4
96
91
61
17
75
127
59
90
108
7
48
95
67
23
63
119
21
98
76
92
39
41
24
19
60
68
64
123
70
111
38
35
99
26
46
49
58
10
2
104
22
28
13
110
14
101
29
103
50
79
33
44
77
52
16
102
115
81
97
30
51
109
40
94
47
73
84
11
32
105
117
72
106
12
62
54
18
71
124
112
80
36
65
53
116
83
89
114
25
5
27
43
121
93
42

>  <PUBCHEM_MMFF94_PARTIAL_CHARGES>  (1) 
23
1 -0.43
12 -0.14
13 0.66
14 -0.15
15 -0.15
16 0.27
17 0.28
18 0.27
19 0.27
2 -0.57
20 0.28
21 0.28
22 -0.15
23 -0.15
24 -0.15
3 -0.56
37 0.15
38 0.15
4 -0.81
51 0.15
52 0.15
53 0.15
8 0.2

>  <PUBCHEM_EFFECTIVE_ROTOR_COUNT>  (1) 
9.4

>  <PUBCHEM_PHARMACOPHORE_FEATURES>  (1) 
6
1 2 acceptor
1 3 acceptor
1 4 cation
6 12 14 15 22 23 24 rings
6 3 4 18 19 20 21 rings
6 5 6 7 9 10 11 rings

>  <PUBCHEM_HEAVY_ATOM_COUNT>  (1) 
24

>  <PUBCHEM_ATOM_DEF_STEREO_COUNT>  (1) 
0

>  <PUBCHEM_ATOM_UDEF_STEREO_COUNT>  (1) 
1

>  <PUBCHEM_BOND_DEF_STEREO_COUNT>  (1) 
0

>  <PUBCHEM_BOND_UDEF_STEREO_COUNT>  (1) 
0

>  <PUBCHEM_ISOTOPIC_ATOM_COUNT>  (1) 
0

>  <PUBCHEM_COMPONENT_COUNT>  (1) 
1

>  <PUBCHEM_CACTVS_TAUTO_COUNT>  (1) 
1

>  <PUBCHEM_CONFORMER_ID>  (1) 
0000BBD400000001

>  <PUBCHEM_MMFF94_ENERGY>  (1) 
48.0593

>  <PUBCHEM_FEATURE_SELFOVERLAP>  (1) 
30.446

>  <PUBCHEM_SHAPE_FINGERPRINT>  (1) 
10319688 45 18198057191054685303
10411042 1 18122625222239128851
10595046 47 18261674870151026150
10912923 1 17967530169403194690
11056379 131 18411989078228788334
11101153 10 18189904308361369596
11315181 36 18186799193076752220
11545043 162 18273209803529985730
12107183 9 17974842870758000498
12788726 201 18334851757835333099
12930653 34 18341897346419878942
13073987 5 18410288130394756290
13583140 156 17846489331968316806
13631057 29 18335698385867175787
14068700 675 18190178069391725983
14347332 77 18337955709182435132
14565420 104 17481447984324002601
14844126 61 18409449215391226843
15042514 8 18410295856798737739
15250474 111 18188194443416186538
15439362 3 17837210372578193116
16087824 20 18410572878553277671
17844677 252 18411141368329026880
17980427 26 17548968963125211429
19427546 20 18408042930933266837
20600515 1 17771931551853111979
21033648 29 17131538471680869104
21033650 10 18192742032219174518
21130935 74 18335411350189815994
21236236 1 18334294271000696674
21304303 172 18200882881099831867
2132832 1 18188211038531079652
21426921 1 18410575102048754403
21585481 151 18265041437871251138
21796203 349 17469640706557250379
22182313 1 17560255647320530710
22956985 138 17403452374301987883
2297311 6 18270972352564115830
23081809 10 17675927591316018394
23559900 14 18266448987581534753
25147074 1 17895771684887215308
255183 313 18269574779724139593
283562 15 18334575763500629467
4409770 3 18409441493445898407
497634 4 18114177557952804750
5104073 3 18335406956094763610
5219985 9 18266181819805889139
57634706 229 17843704178346698425
5969126 39 18272079544257873903
59755656 520 18264762169414797445
6327066 14 18117552921422867077
6677587 24 15800118792304581517
6700243 42 17841469017568081924
7226269 152 18408320008639056151
7288768 16 17343806797757814681
77188 2 17979070810793865239
9981440 41 17845648123789199007

>  <PUBCHEM_SHAPE_MULTIPOLES>  (1) 
471.32
14.87
4.5
1.1
35.59
0.13
-0.08
-1.01
0.67
-10.96
0.4
0.19
0.35
-0.65

>  <PUBCHEM_SHAPE_SELFOVERLAP>  (1) 
975.265

>  <PUBCHEM_SHAPE_VOLUME>  (1) 
266.5

>  <PUBCHEM_COORDINATE_TYPE>  (1) 
2
5
10

$$$$
