48087
     RDKit          3D

 21 22  0  0  0  0  0  0  0  0999 V2000
   -2.6761    0.6882    0.9420 O   0  0  0  0  0  0  0  0  0  0  0  0
   -1.2964    3.0821   -0.1635 O   0  0  0  0  0  0  0  0  0  0  0  0
    0.0623    1.3107    0.4838 N   0  0  0  0  0  0  0  0  0  0  0  0
    1.1337    0.3814    0.1487 C   0  0  0  0  0  0  0  0  0  0  0  0
    2.5135    0.9202    0.5185 C   0  0  0  0  0  0  0  0  0  0  0  0
   -0.5020    1.1574    1.8223 C   0  0  0  0  0  0  0  0  0  0  0  0
    3.6320   -0.0236    0.1504 C   0  0  0  0  0  0  0  0  0  0  0  0
   -1.6670    0.1806    1.8051 C   0  0  0  0  0  0  0  0  0  0  0  0
   -0.3928    2.2793   -0.4116 C   0  0  0  0  0  0  0  0  0  0  0  0
    4.0505   -0.9735    1.0692 C   0  0  0  0  0  0  0  0  0  0  0  0
    4.2218    0.0759   -1.1002 C   0  0  0  0  0  0  0  0  0  0  0  0
    0.2812    2.3239   -1.7601 C   0  0  0  0  0  0  0  0  0  0  0  0
    5.0846   -1.8456    0.7291 C   0  0  0  0  0  0  0  0  0  0  0  0
    5.2559   -0.7962   -1.4403 C   0  0  0  0  0  0  0  0  0  0  0  0
   -3.4494   -0.2338    0.2862 C   0  0  0  0  0  0  0  0  0  0  0  0
    5.6873   -1.7569   -0.5256 C   0  0  0  0  0  0  0  0  0  0  0  0
   -3.6960   -1.4687    0.8752 C   0  0  0  0  0  0  0  0  0  0  0  0
   -3.9786    0.0750   -0.9617 C   0  0  0  0  0  0  0  0  0  0  0  0
   -4.4824   -2.4075    0.2072 C   0  0  0  0  0  0  0  0  0  0  0  0
   -4.7650   -0.8637   -1.6296 C   0  0  0  0  0  0  0  0  0  0  0  0
   -5.0168   -2.1050   -1.0451 C   0  0  0  0  0  0  0  0  0  0  0  0
  1  8  1  0
  1 15  1  0
  2  9  2  0
  3  4  1  0
  3  6  1  0
  3  9  1  0
  4  5  1  0
  5  7  1  0
  6  8  1  0
  7 10  2  0
  7 11  1  0
  9 12  1  0
 10 13  1  0
 11 14  2  0
 13 16  2  0
 14 16  1  0
 15 17  2  0
 15 18  1  0
 17 19  1  0
 18 20  2  0
 19 21  2  0
 20 21  1  0
M  END
>  <PUBCHEM_COMPOUND_CID>  (1) 
48087

>  <PUBCHEM_CONFORMER_RMSD>  (1) 
0.8

>  <PUBCHEM_CONFORMER_DIVERSEORDER>  (1) 
2
334
353
314
142
135
318
75
276
21
55
69
11
92
160
189
118
52
50
180
274
293
308
171
342
382
74
110
249
18
252
406
251
125
87
123
42
376
379
113
381
289
139
208
231
309
396
96
192
332
338
392
68
6
344
191
144
194
88
8
389
325
402
241
9
386
20
363
38
267
397
323
213
89
361
154
333
124
408
337
390
387
217
255
253
15
99
190
209
285
197
265
170
199
269
380
400
247
226
407
106
234
211
22
115
388
31
120
130
225
350
239
152
298
56
187
137
299
268
141
367
39
395
64
284
365
260
403
245
129
164
36
377
373
72
26
310
371
30
264
143
259
53
179
321
331
394
205
301
47
14
236
126
105
161
348
57
48
196
275
345
201
324
119
1
175
203
59
320
62
374
272
159
220
155
37
19
27
202
271
311
364
168
242
248
228
281
273
261
244
17
262
294
138
322
328
102
307
114
111
235
121
279
341
61
136
316
193
329
109
357
80
173
360
165
300
73
405
12
148
306
172
378
398
108
287
67
204
153
65
58
16
296
305
312
7
3
356
34
280
162
339
44
266
372
383
362
46
278
133
358
198
304
317
297
60
370
94
156
212
79
77
254
188
41
150
66
282
146
35
315
140
149
240
70
399
223
78
86
224
45
230
183
49
178
336
303
181
174
385
366
185
128
83
238
222
5
401
391
116
182
43
98
127
84
352
93
292
103
112
288
283
10
302
177
290
32
163
100
327
4
186
263
291
134
349
54
384
24
85
206
90
295
76
369
145
95
207
229
214
157
368
23
219
51
257
104
28
97
167
258
131
63
82
40
107
335
71
359
218
250
210
319
326
195
29
237
25
354
215
404
147
101
246
330
176
286
166
122
346
277
343
33
233
200
158
227
169
243
91
340
117
270
351
232
151
256
375
347
13
355
393
81
313
216
184
221
132

>  <PUBCHEM_MMFF94_PARTIAL_CHARGES>  (1) 
31
1 -0.36
10 -0.15
11 -0.15
12 0.06
13 -0.15
14 -0.15
15 0.08
16 -0.15
17 -0.15
18 -0.15
19 -0.15
2 -0.57
20 -0.15
21 -0.15
3 -0.66
30 0.15
31 0.15
35 0.15
36 0.15
37 0.15
38 0.15
39 0.15
4 0.3
40 0.15
41 0.15
42 0.15
5 0.14
6 0.3
7 -0.14
8 0.28
9 0.57

>  <PUBCHEM_EFFECTIVE_ROTOR_COUNT>  (1) 
8

>  <PUBCHEM_PHARMACOPHORE_FEATURES>  (1) 
4
1 1 acceptor
1 2 acceptor
6 15 17 18 19 20 21 rings
6 7 10 11 13 14 16 rings

>  <PUBCHEM_HEAVY_ATOM_COUNT>  (1) 
21

>  <PUBCHEM_ATOM_DEF_STEREO_COUNT>  (1) 
0

>  <PUBCHEM_ATOM_UDEF_STEREO_COUNT>  (1) 
0

>  <PUBCHEM_BOND_DEF_STEREO_COUNT>  (1) 
0

>  <PUBCHEM_BOND_UDEF_STEREO_COUNT>  (1) 
0

>  <PUBCHEM_ISOTOPIC_ATOM_COUNT>  (1) 
0

>  <PUBCHEM_COMPONENT_COUNT>  (1) 
1

>  <PUBCHEM_CACTVS_TAUTO_COUNT>  (1) 
1

>  <PUBCHEM_CONFORMER_ID>  (1) 
0000BBD700000002

>  <PUBCHEM_MMFF94_ENERGY>  (1) 
57.9692

>  <PUBCHEM_FEATURE_SELFOVERLAP>  (1) 
20.299

>  <PUBCHEM_SHAPE_FINGERPRINT>  (1) 
105312 117 13840271385491733322
10753850 27 18342453764128722627
11046707 91 18272092677613665600
12596602 18 14189570849242801807
12633257 1 15697721522868979687
12892183 10 14333136264345369007
12969540 114 14056723417836789964
13544653 18 17988643029648945201
13583140 156 15553886564266268088
1420 369 17918276475699048978
14251764 38 11171355395076400750
14341114 328 10735878400025468207
14848178 5 18201433688094147126
14950920 106 14764346028920074758
15163728 17 12901541300122027529
15188451 53 17418085499314005286
17349148 13 18200887247995076606
17857418 61 18336544920185334906
1813 80 18271812353635787260
18222031 100 18342175583344123804
193927 3 18202289133947231963
19784866 240 18271248326399675299
22620623 9 18262511490482600941
23379529 103 18118406378700662843
23402539 116 18114467768682082904
23559900 14 18341603836976492616
2838139 119 12973876035504458894
2916195 48 10809346650017075191
3027735 51 18267019466533790619
312425 54 15984834713365881903
38570 142 14116377576601153610
392239 28 10879413076501195317
44062 13 18341895130337793937
46194498 28 16952819621059202743
633830 44 8141825875279445953
76465 3 18342173366966984456
960060 61 17749107803246541286
999808 66 15769229228640000822

>  <PUBCHEM_SHAPE_MULTIPOLES>  (1) 
415.45
13.47
2.71
1.68
5.93
0.88
-0.02
-12.51
-4.1
-1.18
-0.48
-0.4
0.2
-0.55

>  <PUBCHEM_SHAPE_SELFOVERLAP>  (1) 
863.838

>  <PUBCHEM_SHAPE_VOLUME>  (1) 
235.9

>  <PUBCHEM_COORDINATE_TYPE>  (1) 
2
5
10

$$$$
