48086
     RDKit          3D

 27 29  0  0  0  0  0  0  0  0999 V2000
    4.3306   -2.7168    1.2165 O   0  0  0  0  0  0  0  0  0  0  0  0
    0.5789    0.6268   -0.5953 O   0  0  0  0  0  0  0  0  0  0  0  0
   -0.5240   -0.8554   -1.9687 O   0  0  0  0  0  0  0  0  0  0  0  0
    3.9778   -0.0451    0.3005 N   0  0  0  0  0  0  0  0  0  0  0  0
    2.7344    1.6901   -1.0523 C   0  0  0  0  0  0  0  0  0  0  0  0
    3.3102    1.2547    0.3225 C   0  0  0  0  0  0  0  0  0  0  0  0
    1.6334    0.7236   -1.5444 C   0  0  0  0  0  0  0  0  0  0  0  0
    4.5959   -0.3363    1.6015 C   0  0  0  0  0  0  0  0  0  0  0  0
    3.0321   -1.1114   -0.0575 C   0  0  0  0  0  0  0  0  0  0  0  0
    3.8447    1.7585   -2.1179 C   0  0  0  0  0  0  0  0  0  0  0  0
    2.1361    3.1029   -0.8854 C   0  0  0  0  0  0  0  0  0  0  0  0
    5.2757   -1.7019    1.5575 C   0  0  0  0  0  0  0  0  0  0  0  0
    3.7479   -2.4591   -0.0615 C   0  0  0  0  0  0  0  0  0  0  0  0
   -1.4783   -0.2577    0.2011 C   0  0  0  0  0  0  0  0  0  0  0  0
   -0.4571   -0.2085   -0.9310 C   0  0  0  0  0  0  0  0  0  0  0  0
   -2.0580    1.1021    0.5673 C   0  0  0  0  0  0  0  0  0  0  0  0
   -2.5669   -1.2995   -0.0245 C   0  0  0  0  0  0  0  0  0  0  0  0
   -2.4579    1.3272    1.8682 C   0  0  0  0  0  0  0  0  0  0  0  0
   -3.7143   -0.9287   -0.6939 C   0  0  0  0  0  0  0  0  0  0  0  0
   -2.1646    2.0667   -0.4132 C   0  0  0  0  0  0  0  0  0  0  0  0
   -2.3703   -2.5805    0.4473 C   0  0  0  0  0  0  0  0  0  0  0  0
   -2.9887    2.5727    2.2037 C   0  0  0  0  0  0  0  0  0  0  0  0
   -4.7109   -1.8824   -0.9008 C   0  0  0  0  0  0  0  0  0  0  0  0
   -2.6952    3.3122   -0.0774 C   0  0  0  0  0  0  0  0  0  0  0  0
   -3.3671   -3.5342    0.2403 C   0  0  0  0  0  0  0  0  0  0  0  0
   -3.1072    3.5652    1.2310 C   0  0  0  0  0  0  0  0  0  0  0  0
   -4.5372   -3.1851   -0.4338 C   0  0  0  0  0  0  0  0  0  0  0  0
  1 12  1  0
  1 13  1  0
  2  7  1  0
  2 15  1  0
  3 15  2  0
  4  6  1  0
  4  8  1  0
  4  9  1  0
  5  6  1  0
  5  7  1  0
  5 10  1  0
  5 11  1  0
  8 12  1  0
  9 13  1  0
 14 15  1  0
 14 16  1  0
 14 17  1  0
 16 18  2  0
 16 20  1  0
 17 19  2  0
 17 21  1  0
 18 22  1  0
 19 23  1  0
 20 24  2  0
 21 25  2  0
 22 26  2  0
 23 27  2  0
 24 26  1  0
 25 27  1  0
M  END
>  <PUBCHEM_COMPOUND_CID>  (1) 
48086

>  <PUBCHEM_CONFORMER_RMSD>  (1) 
1

>  <PUBCHEM_CONFORMER_DIVERSEORDER>  (1) 
1
30
9
25
20
31
24
16
10
6
22
27
3
7
18
28
2
35
23
37
17
5
21
34
14
38
33
26
11
13
15
8
39
4
29
36
32
12
19

>  <PUBCHEM_MMFF94_PARTIAL_CHARGES>  (1) 
34
1 -0.56
12 0.28
13 0.28
14 0.35
15 0.66
16 -0.14
17 -0.14
18 -0.15
19 -0.15
2 -0.43
20 -0.15
21 -0.15
22 -0.15
23 -0.15
24 -0.15
25 -0.15
26 -0.15
27 -0.15
3 -0.57
4 -0.81
47 0.15
48 0.15
49 0.15
50 0.15
51 0.15
52 0.15
53 0.15
54 0.15
55 0.15
56 0.15
6 0.27
7 0.28
8 0.27
9 0.27

>  <PUBCHEM_EFFECTIVE_ROTOR_COUNT>  (1) 
9.2

>  <PUBCHEM_PHARMACOPHORE_FEATURES>  (1) 
7
1 1 acceptor
1 3 acceptor
1 4 cation
3 5 10 11 hydrophobe
6 1 4 8 9 12 13 rings
6 16 18 20 22 24 26 rings
6 17 19 21 23 25 27 rings

>  <PUBCHEM_HEAVY_ATOM_COUNT>  (1) 
27

>  <PUBCHEM_ATOM_DEF_STEREO_COUNT>  (1) 
0

>  <PUBCHEM_ATOM_UDEF_STEREO_COUNT>  (1) 
0

>  <PUBCHEM_BOND_DEF_STEREO_COUNT>  (1) 
0

>  <PUBCHEM_BOND_UDEF_STEREO_COUNT>  (1) 
0

>  <PUBCHEM_ISOTOPIC_ATOM_COUNT>  (1) 
0

>  <PUBCHEM_COMPONENT_COUNT>  (1) 
1

>  <PUBCHEM_CACTVS_TAUTO_COUNT>  (1) 
1

>  <PUBCHEM_CONFORMER_ID>  (1) 
0000BBD600000001

>  <PUBCHEM_MMFF94_ENERGY>  (1) 
93.5215

>  <PUBCHEM_FEATURE_SELFOVERLAP>  (1) 
35.522

>  <PUBCHEM_SHAPE_FINGERPRINT>  (1) 
10928967 22 17678453065966628202
11545043 162 17346053185965083700
11595378 159 18059856224552723788
12107183 9 18191021201225361449
12422481 6 18128841684867427075
12596599 1 18333729092112444162
12633257 1 18263934232779712172
12788726 201 18269846457084018251
12892183 10 18201704168613593032
13004483 165 18269836570449202039
13103583 49 18265890264440364002
13149001 5 16981009703473336261
13533116 47 18261108633703877551
13583140 156 17631714016195566458
13692114 37 17916308234859989245
14178342 30 18340205194040844550
15420108 30 17688582767655579601
15842332 3 18189071887579616484
16728300 4 17100870717012405673
17492 89 18409166640528542886
17818456 19 18339081488745927233
17974551 9 17916005877367111866
19319366 153 17616251828808070580
21033648 29 16845290497835201664
21304303 282 18126266564289852285
2132832 1 18410284835094770821
21703447 108 18198339761247867992
23558518 356 18408892810630256739
23559900 14 18263351650251114846
25147074 1 18334305266185604964
3004659 81 18041831943134141638
312423 11 18335994128893620030
3886686 26 18054227618198427242
460360 51 18040723532365244572
5486654 36 18187090507670973322
56633871 153 17975409118871901410
5924683 9 18340480093258822107
6913067 236 17060334171522361695
7097593 13 18334865987177703868
7164475 11 18410856589841886269
7615 1 18335431174513648476
79837 15 18054794988094689465
9981440 41 16915648182097655535

>  <PUBCHEM_SHAPE_MULTIPOLES>  (1) 
533.06
10.71
4.73
1.8
6.97
0.47
0.2
-6.25
2.16
-4.19
0.88
0.88
0.79
-3.86

>  <PUBCHEM_SHAPE_SELFOVERLAP>  (1) 
1124.222

>  <PUBCHEM_SHAPE_VOLUME>  (1) 
297.3

>  <PUBCHEM_COORDINATE_TYPE>  (1) 
2
5
10

$$$$
