48097
     RDKit          3D

 28 30  0  0  0  0  0  0  0  0999 V2000
    5.7868   -1.1283    0.0643 O   0  0  0  0  0  0  0  0  0  0  0  0
    0.2489    4.1907    0.7927 O   0  0  0  0  0  0  0  0  0  0  0  0
    3.1427   -0.1321    0.4070 N   0  0  0  0  0  0  0  0  0  0  0  0
   -0.5513    2.2652   -0.2148 N   0  0  0  0  0  0  0  0  0  0  0  0
   -0.7481   -0.1827    0.1039 C   0  0  0  0  0  0  0  0  0  0  0  0
    0.7227   -0.5336    0.5588 C   0  0  0  0  0  0  0  0  0  0  0  0
    1.8410    0.2917   -0.1050 C   0  0  0  0  0  0  0  0  0  0  0  0
   -0.9335    1.3124    0.5861 C   0  0  0  0  0  0  0  0  0  0  0  0
   -1.7953   -1.1111    0.7905 C   0  0  0  0  0  0  0  0  0  0  0  0
   -0.9611   -0.3578   -1.4322 C   0  0  0  0  0  0  0  0  0  0  0  0
    3.3966   -1.5428    0.0833 C   0  0  0  0  0  0  0  0  0  0  0  0
    4.2168    0.7105   -0.1369 C   0  0  0  0  0  0  0  0  0  0  0  0
   -1.4794    1.5642    2.0033 C   0  0  0  0  0  0  0  0  0  0  0  0
    4.7645   -1.9582    0.6171 C   0  0  0  0  0  0  0  0  0  0  0  0
    5.5658    0.2417    0.4010 C   0  0  0  0  0  0  0  0  0  0  0  0
   -3.1122   -0.8748    0.5321 C   0  0  0  0  0  0  0  0  0  0  0  0
   -1.8455    0.4780   -2.0431 C   0  0  0  0  0  0  0  0  0  0  0  0
   -1.3254   -2.0983    1.6035 C   0  0  0  0  0  0  0  0  0  0  0  0
   -0.2479   -1.3343   -2.0582 C   0  0  0  0  0  0  0  0  0  0  0  0
   -0.4072    1.5828    3.0807 C   0  0  0  0  0  0  0  0  0  0  0  0
   -4.0494   -1.7056    1.1462 C   0  0  0  0  0  0  0  0  0  0  0  0
   -2.0357    0.3218   -3.4161 C   0  0  0  0  0  0  0  0  0  0  0  0
   -2.2627   -2.9291    2.2175 C   0  0  0  0  0  0  0  0  0  0  0  0
   -0.4381   -1.4903   -3.4312 C   0  0  0  0  0  0  0  0  0  0  0  0
   -3.6246   -2.7327    1.9888 C   0  0  0  0  0  0  0  0  0  0  0  0
   -1.3320   -0.6622   -4.1101 C   0  0  0  0  0  0  0  0  0  0  0  0
   -0.6118    3.5831    0.1609 C   0  0  0  0  0  0  0  0  0  0  0  0
   -1.9245    4.2314   -0.1900 C   0  0  0  0  0  0  0  0  0  0  0  0
  1 14  1  0
  1 15  1  0
  2 27  2  0
  3  7  1  0
  3 11  1  0
  3 12  1  0
  4  8  2  0
  4 27  1  0
  5  6  1  0
  5  8  1  0
  5  9  1  0
  5 10  1  0
  6  7  1  0
  8 13  1  0
  9 16  2  0
  9 18  1  0
 10 17  2  0
 10 19  1  0
 11 14  1  0
 12 15  1  0
 13 20  1  0
 16 21  1  0
 17 22  1  0
 18 23  2  0
 19 24  2  0
 21 25  2  0
 22 26  2  0
 23 25  1  0
 24 26  1  0
 27 28  1  0
M  END
>  <PUBCHEM_COMPOUND_CID>  (1) 
48097

>  <PUBCHEM_CONFORMER_RMSD>  (1) 
1

>  <PUBCHEM_CONFORMER_DIVERSEORDER>  (1) 
1
4
11
12
8
13
22
19
23
15
6
14
7
18
5
20
10
2
21
3
9
17
16

>  <PUBCHEM_MMFF94_PARTIAL_CHARGES>  (1) 
36
1 -0.56
10 -0.14
11 0.27
12 0.27
13 0.06
14 0.28
15 0.28
16 -0.15
17 -0.15
18 -0.15
19 -0.15
2 -0.57
21 -0.15
22 -0.15
23 -0.15
24 -0.15
25 -0.15
26 -0.15
27 0.72
28 0.06
3 -0.81
4 -0.66
43 0.15
44 0.15
45 0.15
46 0.15
5 0.35
50 0.15
51 0.15
52 0.15
53 0.15
54 0.15
55 0.15
7 0.27
8 0.33
9 -0.14

>  <PUBCHEM_EFFECTIVE_ROTOR_COUNT>  (1) 
9.2

>  <PUBCHEM_PHARMACOPHORE_FEATURES>  (1) 
9
1 1 acceptor
1 2 acceptor
1 20 hydrophobe
1 3 cation
1 4 acceptor
1 4 donor
6 1 3 11 12 14 15 rings
6 10 17 19 22 24 26 rings
6 9 16 18 21 23 25 rings

>  <PUBCHEM_HEAVY_ATOM_COUNT>  (1) 
28

>  <PUBCHEM_ATOM_DEF_STEREO_COUNT>  (1) 
0

>  <PUBCHEM_ATOM_UDEF_STEREO_COUNT>  (1) 
0

>  <PUBCHEM_BOND_DEF_STEREO_COUNT>  (1) 
0

>  <PUBCHEM_BOND_UDEF_STEREO_COUNT>  (1) 
0

>  <PUBCHEM_ISOTOPIC_ATOM_COUNT>  (1) 
0

>  <PUBCHEM_COMPONENT_COUNT>  (1) 
1

>  <PUBCHEM_CACTVS_TAUTO_COUNT>  (1) 
1

>  <PUBCHEM_CONFORMER_ID>  (1) 
0000BBE100000001

>  <PUBCHEM_MMFF94_ENERGY>  (1) 
101.2472

>  <PUBCHEM_FEATURE_SELFOVERLAP>  (1) 
45.718

>  <PUBCHEM_SHAPE_FINGERPRINT>  (1) 
10165383 225 17459451274793619973
10764073 3 18057908865080305609
107951 10 17905894677821783396
11443803 9 17338401538023169073
11578080 2 17605263189330820181
11582403 64 17405978566247986820
11763715 3 17754498729978993504
12058002 1 18191316970159072469
12082328 90 18337967693333876774
12422481 6 17630352790503603899
12788726 201 18264194829783279745
133893 2 17480839245053882896
14840074 17 17845382209663715316
14863182 85 15880135178947279291
14910302 57 17458336421559057922
15878777 1 16827487127964122157
17980427 23 17845394244304640601
17980427 26 17475806823504693517
20600515 1 17969242159967734519
229495 10 17973159827049500861
23419403 2 17899402371071510965
23598288 3 18340215111299633924
266924 78 17333349698899999639
3027735 51 16081359735540493114
3380486 77 18124625177759748819
376196 1 17194318175960853864
394222 165 17190643590857699297
469060 322 17988634233350545863
484985 159 17896597285229019586
497634 4 17895205385360410846
57527452 28 16773791520276647055
59755656 520 17898005725069088156
81228 2 17551284689289963955
9981440 41 16555657015665289146

>  <PUBCHEM_SHAPE_MULTIPOLES>  (1) 
554.53
7.51
4.02
3.57
15.09
4.41
-4.12
-5.46
2.5
-2.75
2.47
-3.48
-0.71
1.31

>  <PUBCHEM_SHAPE_SELFOVERLAP>  (1) 
1171.215

>  <PUBCHEM_SHAPE_VOLUME>  (1) 
308.6

>  <PUBCHEM_COORDINATE_TYPE>  (1) 
2
5
10

$$$$
