48100
     RDKit          3D

 17 17  0  0  0  0  0  0  0  0999 V2000
   -3.6977   -0.7584   -0.0536 O   0  0  0  0  0  0  0  0  0  0  0  0
   -2.8000    2.0173    0.6871 O   0  0  0  0  0  0  0  0  0  0  0  0
   -1.1291    0.4102    0.5182 N   0  0  0  0  0  0  0  0  0  0  0  0
    0.1636    0.0164   -0.0274 C   0  0  0  0  0  0  0  0  0  0  0  0
    1.3267    0.4087    0.8803 C   0  0  0  0  0  0  0  0  0  0  0  0
   -1.7756   -0.5828    1.3723 C   0  0  0  0  0  0  0  0  0  0  0  0
   -2.6667   -1.5131    0.5698 C   0  0  0  0  0  0  0  0  0  0  0  0
    2.6718    0.0294    0.3109 C   0  0  0  0  0  0  0  0  0  0  0  0
   -1.7088    1.6495    0.2439 C   0  0  0  0  0  0  0  0  0  0  0  0
    3.2086   -1.2143    0.6056 C   0  0  0  0  0  0  0  0  0  0  0  0
    3.3468    0.9309   -0.4975 C   0  0  0  0  0  0  0  0  0  0  0  0
   -0.9291    2.5770   -0.6543 C   0  0  0  0  0  0  0  0  0  0  0  0
   -4.5609   -1.5878   -0.8192 C   0  0  0  0  0  0  0  0  0  0  0  0
    4.4517   -1.5652    0.0791 C   0  0  0  0  0  0  0  0  0  0  0  0
    4.5899    0.5798   -1.0240 C   0  0  0  0  0  0  0  0  0  0  0  0
    5.1422   -0.6682   -0.7358 C   0  0  0  0  0  0  0  0  0  0  0  0
   -5.6333   -0.7294   -1.4554 C   0  0  0  0  0  0  0  0  0  0  0  0
  1  7  1  0
  1 13  1  0
  2  9  2  0
  3  4  1  0
  3  6  1  0
  3  9  1  0
  4  5  1  0
  5  8  1  0
  6  7  1  0
  8 10  2  0
  8 11  1  0
  9 12  1  0
 10 14  1  0
 11 15  2  0
 13 17  1  0
 14 16  2  0
 15 16  1  0
M  END
>  <PUBCHEM_COMPOUND_CID>  (1) 
48100

>  <PUBCHEM_CONFORMER_RMSD>  (1) 
0.8

>  <PUBCHEM_CONFORMER_DIVERSEORDER>  (1) 
1
104
135
90
58
116
59
146
2
127
137
152
37
84
87
39
41
14
96
93
22
56
136
53
160
131
83
38
111
141
89
147
154
35
97
129
21
82
108
11
36
149
100
88
74
67
145
30
157
46
153
121
120
142
161
52
110
95
19
98
91
29
159
24
79
105
125
17
143
109
103
43
122
119
117
72
99
148
23
101
139
49
130
6
134
5
64
76
107
66
18
114
150
85
75
140
158
77
12
118
94
55
4
112
32
57
65
20
70
113
115
33
31
48
86
69
42
63
26
156
9
126
34
102
15
73
45
54
47
132
7
50
13
162
151
27
40
80
124
71
163
16
144
10
155
138
133
28
123
44
68
106
128
8
62
61
3
92
81
78
25
51
60

>  <PUBCHEM_MMFF94_PARTIAL_CHARGES>  (1) 
21
1 -0.56
10 -0.15
11 -0.15
12 0.06
13 0.28
14 -0.15
15 -0.15
16 -0.15
2 -0.57
26 0.15
27 0.15
3 -0.66
33 0.15
34 0.15
35 0.15
4 0.3
5 0.14
6 0.3
7 0.28
8 -0.14
9 0.57

>  <PUBCHEM_EFFECTIVE_ROTOR_COUNT>  (1) 
8

>  <PUBCHEM_PHARMACOPHORE_FEATURES>  (1) 
3
1 1 acceptor
1 2 acceptor
6 8 10 11 14 15 16 rings

>  <PUBCHEM_HEAVY_ATOM_COUNT>  (1) 
17

>  <PUBCHEM_ATOM_DEF_STEREO_COUNT>  (1) 
0

>  <PUBCHEM_ATOM_UDEF_STEREO_COUNT>  (1) 
0

>  <PUBCHEM_BOND_DEF_STEREO_COUNT>  (1) 
0

>  <PUBCHEM_BOND_UDEF_STEREO_COUNT>  (1) 
0

>  <PUBCHEM_ISOTOPIC_ATOM_COUNT>  (1) 
0

>  <PUBCHEM_COMPONENT_COUNT>  (1) 
1

>  <PUBCHEM_CACTVS_TAUTO_COUNT>  (1) 
1

>  <PUBCHEM_CONFORMER_ID>  (1) 
0000BBE400000001

>  <PUBCHEM_MMFF94_ENERGY>  (1) 
34.1009

>  <PUBCHEM_FEATURE_SELFOVERLAP>  (1) 
15.224

>  <PUBCHEM_SHAPE_FINGERPRINT>  (1) 
10366900 7 18342181089476717650
11046707 91 17988927790338966595
12916754 54 18202285788389144160
13583140 156 14404913440221930835
14508225 48 18335978735789561757
16752209 62 18410847742177790179
17959699 21 16950278537627944341
18186145 218 16371020589711030672
18222031 100 17632293523000039095
19862831 5 17530683229513283682
200 152 18409448098187643107
20645477 70 18187085044631081578
20871999 31 18187079542635147677
21033648 29 12902124145107775526
21637258 2 16558457674103678567
22224240 67 9151178680013704983
23402539 116 18410856547319338141
23557571 272 18342750584986593620
23559900 14 18336260266363048072
23598291 2 17678170495688217674
23622692 118 18262787455306304378
2871803 45 18334574646629413874
2916195 48 12107779727252826407
29717793 49 18411704266505464126
3286 77 17274821393330362153
4259306 186 18272931626328931663
465052 167 17845658173881205711
5283173 99 18041268886202034485
58051976 378 18334866047655321138
960060 61 18336824294326815462
9709674 26 18335996259435340898

>  <PUBCHEM_SHAPE_MULTIPOLES>  (1) 
333.13
11.75
2.1
1.16
0.98
1.02
0.08
-5.44
5.3
1.21
0.08
0.66
-0.1
-0.86

>  <PUBCHEM_SHAPE_SELFOVERLAP>  (1) 
660.688

>  <PUBCHEM_SHAPE_VOLUME>  (1) 
198.3

>  <PUBCHEM_COORDINATE_TYPE>  (1) 
2
5
10

$$$$
