48109
     RDKit          3D

 22 23  0  0  1  0  0  0  0  0999 V2000
    0.4544    0.6257   -0.0766 O   0  0  0  0  0  0  0  0  0  0  0  0
    0.3815   -1.0733   -1.6152 O   0  0  0  0  0  0  0  0  0  0  0  0
   -5.6537   -0.5019    0.4003 O   0  0  0  0  0  0  0  0  0  0  0  0
    1.7700    3.1771    0.1932 N   0  0  0  0  0  0  0  0  0  0  0  0
    1.8571    0.7615   -0.3007 C   0  0  0  0  0  0  0  0  0  0  0  0
    2.4207    1.9139    0.5397 C   0  0  0  0  0  0  0  0  0  0  0  0
    2.5208   -0.5532    0.0460 C   0  0  0  0  0  0  0  0  0  0  0  0
    3.6593   -0.9376   -0.6412 C   0  0  0  0  0  0  0  0  0  0  0  0
    1.9757   -1.3434    1.0434 C   0  0  0  0  0  0  0  0  0  0  0  0
    2.0083    3.5060   -1.2116 C   0  0  0  0  0  0  0  0  0  0  0  0
    2.2500    4.2536    1.0589 C   0  0  0  0  0  0  0  0  0  0  0  0
   -0.1824   -0.3435   -0.8064 C   0  0  0  0  0  0  0  0  0  0  0  0
    4.2713   -2.1495   -0.3216 C   0  0  0  0  0  0  0  0  0  0  0  0
    2.5879   -2.5554    1.3630 C   0  0  0  0  0  0  0  0  0  0  0  0
   -1.6111   -0.3851   -0.4908 C   0  0  0  0  0  0  0  0  0  0  0  0
    3.7357   -2.9584    0.6805 C   0  0  0  0  0  0  0  0  0  0  0  0
   -2.3028   -1.5869   -0.5886 C   0  0  0  0  0  0  0  0  0  0  0  0
   -2.2626    0.7780   -0.0963 C   0  0  0  0  0  0  0  0  0  0  0  0
   -3.6643   -1.6263   -0.2882 C   0  0  0  0  0  0  0  0  0  0  0  0
   -3.6241    0.7387    0.2043 C   0  0  0  0  0  0  0  0  0  0  0  0
   -4.3251   -0.4635    0.1084 C   0  0  0  0  0  0  0  0  0  0  0  0
   -6.2667    0.7233    0.7994 C   0  0  0  0  0  0  0  0  0  0  0  0
  1  5  1  0
  1 12  1  0
  2 12  2  0
  3 21  1  0
  3 22  1  0
  4  6  1  0
  4 10  1  0
  4 11  1  0
  5  6  1  0
  5  7  1  0
  7  8  2  0
  7  9  1  0
  8 13  1  0
  9 14  2  0
 12 15  1  0
 13 16  2  0
 14 16  1  0
 15 17  2  0
 15 18  1  0
 17 19  1  0
 18 20  2  0
 19 21  2  0
 20 21  1  0
M  END
>  <PUBCHEM_COMPOUND_CID>  (1) 
48109

>  <PUBCHEM_CONFORMER_RMSD>  (1) 
0.8

>  <PUBCHEM_CONFORMER_DIVERSEORDER>  (1) 
1
25
12
49
35
14
36
30
18
21
22
31
16
45
37
32
6
27
24
47
7
13
34
5
3
46
8
44
40
23
26
20
17
11
33
4
2
48
19
42
38
39
43
29
41
28
10
9
15

>  <PUBCHEM_MMFF94_PARTIAL_CHARGES>  (1) 
31
1 -0.43
10 0.27
11 0.27
12 0.63
13 -0.15
14 -0.15
15 0.09
16 -0.15
17 -0.15
18 -0.15
19 -0.15
2 -0.57
20 -0.15
21 0.08
22 0.28
26 0.15
27 0.15
3 -0.36
34 0.15
35 0.15
36 0.15
37 0.15
38 0.15
39 0.15
4 -0.81
40 0.15
5 0.42
6 0.27
7 -0.14
8 -0.15
9 -0.15

>  <PUBCHEM_EFFECTIVE_ROTOR_COUNT>  (1) 
7

>  <PUBCHEM_PHARMACOPHORE_FEATURES>  (1) 
5
1 2 acceptor
1 3 acceptor
1 4 cation
6 15 17 18 19 20 21 rings
6 7 8 9 13 14 16 rings

>  <PUBCHEM_HEAVY_ATOM_COUNT>  (1) 
22

>  <PUBCHEM_ATOM_DEF_STEREO_COUNT>  (1) 
0

>  <PUBCHEM_ATOM_UDEF_STEREO_COUNT>  (1) 
1

>  <PUBCHEM_BOND_DEF_STEREO_COUNT>  (1) 
0

>  <PUBCHEM_BOND_UDEF_STEREO_COUNT>  (1) 
0

>  <PUBCHEM_ISOTOPIC_ATOM_COUNT>  (1) 
0

>  <PUBCHEM_COMPONENT_COUNT>  (1) 
1

>  <PUBCHEM_CACTVS_TAUTO_COUNT>  (1) 
1

>  <PUBCHEM_CONFORMER_ID>  (1) 
0000BBED00000001

>  <PUBCHEM_MMFF94_ENERGY>  (1) 
77.5832

>  <PUBCHEM_FEATURE_SELFOVERLAP>  (1) 
25.371

>  <PUBCHEM_SHAPE_FINGERPRINT>  (1) 
10366900 7 17822300067350967803
11405975 8 18411984685025675859
11578080 2 17749934588535278900
12107183 9 18269278950692380033
12166972 35 18060417985074510905
12403259 226 18335133151333953573
12403260 363 18272366452473754037
12553582 1 18265320734180703214
12616971 3 18131632288554748263
12633257 1 18272092665235399503
12788726 201 17975698286477742114
12930653 34 17832144192322734995
13052359 8 17399506832681452508
13140716 1 18049994795269094608
13533116 47 18335422404818125387
13583140 156 18262815054813160203
13878862 14 18264750165482852653
13955234 65 18338800133843795553
14178342 30 17829606506637622007
14341114 176 18413112740626286411
14466204 15 18123191195711915545
14739800 52 17559948986540084593
14866123 147 16825864063865372866
14950920 106 18194151623400773195
14955137 171 18271813410767272270
15042514 8 17906733605409969678
15664445 248 18272102561040588158
15842332 3 17772451615977633295
17349148 13 17917705769641079951
17492 89 18339359790027402919
17818456 19 17988647355029146025
17868525 174 18337667512682717745
17980427 26 18053933224566447068
1813 80 18269844120780169094
18681886 176 17917714634158160294
20369508 70 18408319973535382886
20832881 197 18187926106306097059
21033648 29 16915927466583335155
21049683 271 18260557723218923148
21065198 57 18409731794258648723
21315764 268 18408319970232562781
21344244 78 18271228461432276721
2255824 54 18335983172611454462
22950370 63 18265337209754436870
23366157 5 18261953067297628388
23558518 356 17834107929017507406
23559900 14 18341609339050780579
25147074 1 17916291904914256159
268830 7 18342735256738632389
3091708 16 9646382215393469400
31174 14 18334849528472401900
312423 11 18200306749211466207
314173 41 18410015394912179926
3421961 26 18409163299169918192
345986 75 17826220796940491226
394222 165 18127689550788325656
4409770 3 17540808396018491028
465052 167 18410862023155402927
474 4 18044654449686005405
5104073 3 18341341076126663643
6049 1 17895739751631205261
633830 44 18053383489715737916
7097593 13 18411409613988898783
7364860 26 18340484573252564028
9709674 26 18263080066901137347
9841814 1 18261663818683228874
9981440 41 17762329614937812976

>  <PUBCHEM_SHAPE_MULTIPOLES>  (1) 
430.16
10.36
4.13
1.12
16.23
4.73
0.02
-3.68
-2.2
-6.47
-0.85
-0.5
0.03
-0.7

>  <PUBCHEM_SHAPE_SELFOVERLAP>  (1) 
908.004

>  <PUBCHEM_SHAPE_VOLUME>  (1) 
242.2

>  <PUBCHEM_COORDINATE_TYPE>  (1) 
2
5
10

$$$$
