48128
     RDKit          3D

 20 22  0  0  0  0  0  0  0  0999 V2000
    1.6356    3.5085    0.2506 O   0  0  0  0  0  0  0  0  0  0  0  0
    2.5500   -0.3791   -0.5507 N   0  0  0  0  0  0  0  0  0  0  0  0
    2.6319   -0.4761    0.9135 C   0  0  0  0  0  0  0  0  0  0  0  0
    3.8253   -0.7504   -1.1797 C   0  0  0  0  0  0  0  0  0  0  0  0
    2.9960   -1.8950    1.3532 C   0  0  0  0  0  0  0  0  0  0  0  0
    4.2286   -2.1782   -0.8084 C   0  0  0  0  0  0  0  0  0  0  0  0
    4.2941   -2.3607    0.7038 C   0  0  0  0  0  0  0  0  0  0  0  0
    2.1551    0.9705   -0.9529 C   0  0  0  0  0  0  0  0  0  0  0  0
    0.8107    1.3520   -0.3926 C   0  0  0  0  0  0  0  0  0  0  0  0
   -0.2286    0.4331   -0.4600 C   0  0  0  0  0  0  0  0  0  0  0  0
    0.6206    2.6023    0.1808 C   0  0  0  0  0  0  0  0  0  0  0  0
   -1.4805    0.7709    0.0546 C   0  0  0  0  0  0  0  0  0  0  0  0
   -0.6309    2.9401    0.6960 C   0  0  0  0  0  0  0  0  0  0  0  0
   -1.6815    2.0244    0.6328 C   0  0  0  0  0  0  0  0  0  0  0  0
   -2.5703   -0.1783   -0.0106 C   0  0  0  0  0  0  0  0  0  0  0  0
   -2.7726   -1.0806    1.0337 C   0  0  0  0  0  0  0  0  0  0  0  0
   -3.4185   -0.1914   -1.1180 C   0  0  0  0  0  0  0  0  0  0  0  0
   -3.8235   -1.9959    0.9710 C   0  0  0  0  0  0  0  0  0  0  0  0
   -4.4692   -1.1070   -1.1807 C   0  0  0  0  0  0  0  0  0  0  0  0
   -4.6721   -2.0091   -0.1362 C   0  0  0  0  0  0  0  0  0  0  0  0
  1 11  1  0
  2  3  1  0
  2  4  1  0
  2  8  1  0
  3  5  1  0
  4  6  1  0
  5  7  1  0
  6  7  1  0
  8  9  1  0
  9 10  2  0
  9 11  1  0
 10 12  1  0
 11 13  2  0
 12 14  2  0
 12 15  1  0
 13 14  1  0
 15 16  2  0
 15 17  1  0
 16 18  1  0
 17 19  2  0
 18 20  2  0
 19 20  1  0
M  END
>  <PUBCHEM_COMPOUND_CID>  (1) 
48128

>  <PUBCHEM_CONFORMER_RMSD>  (1) 
0.6

>  <PUBCHEM_CONFORMER_DIVERSEORDER>  (1) 
1
3
4
2
20
19
18
21
5
6
15
13
14
12
10
9
8
7
16
17
22
11

>  <PUBCHEM_MMFF94_PARTIAL_CHARGES>  (1) 
24
1 -0.53
10 -0.15
11 0.08
13 -0.15
14 -0.15
16 -0.15
17 -0.15
18 -0.15
19 -0.15
2 -0.81
20 -0.15
3 0.27
33 0.15
34 0.15
35 0.15
36 0.45
37 0.15
38 0.15
39 0.15
4 0.27
40 0.15
41 0.15
8 0.41
9 -0.14

>  <PUBCHEM_EFFECTIVE_ROTOR_COUNT>  (1) 
4.2

>  <PUBCHEM_PHARMACOPHORE_FEATURES>  (1) 
5
1 1 donor
1 2 cation
6 15 16 17 18 19 20 rings
6 2 3 4 5 6 7 rings
6 9 10 11 12 13 14 rings

>  <PUBCHEM_HEAVY_ATOM_COUNT>  (1) 
20

>  <PUBCHEM_ATOM_DEF_STEREO_COUNT>  (1) 
0

>  <PUBCHEM_ATOM_UDEF_STEREO_COUNT>  (1) 
0

>  <PUBCHEM_BOND_DEF_STEREO_COUNT>  (1) 
0

>  <PUBCHEM_BOND_UDEF_STEREO_COUNT>  (1) 
0

>  <PUBCHEM_ISOTOPIC_ATOM_COUNT>  (1) 
0

>  <PUBCHEM_COMPONENT_COUNT>  (1) 
1

>  <PUBCHEM_CACTVS_TAUTO_COUNT>  (1) 
3

>  <PUBCHEM_CONFORMER_ID>  (1) 
0000BC0000000001

>  <PUBCHEM_MMFF94_ENERGY>  (1) 
49.754

>  <PUBCHEM_FEATURE_SELFOVERLAP>  (1) 
25.373

>  <PUBCHEM_SHAPE_FINGERPRINT>  (1) 
10616163 171 18194969530728616814
11265709 11 18411982429598061641
11578080 2 17968926505984427908
12107183 9 18199488640125900515
12363563 72 18412548699513892503
12403259 118 11455886940891776479
12553582 1 18410020909407328707
12707595 3 18409449210600179071
12788726 201 18194692470709085977
12824470 246 18260549978843969494
13140716 1 18271248214008320184
13533116 47 18196658617344734875
13544653 18 18410573989562469574
13631057 29 18337397050465994422
13828863 39 15408612675861333018
14178342 30 17702398255654023509
14767858 380 18191045550360307860
14787075 74 18263656207194678556
14848160 33 18411417353736250703
14866123 147 18195247703154421905
15042514 8 18124887758906278913
15342168 16 8718558215977341791
15342816 4 18410017602830955278
15352361 1 18410011018113619374
1813 80 18130795559188126479
18186145 218 10665227025503603586
18222031 100 18060415837300965975
193927 3 18411144618844108886
20291156 8 18409453565749654202
20567600 70 18335695100549484354
20626108 58 17845362409949013311
20645477 70 18268143352496103743
20671657 53 18409165528247499085
20693207 138 18040708212633838943
20832881 197 18335138683568056043
21250096 35 18409726257550094423
21452121 199 18341326764467717632
23503958 8 18196934370923795290
235170 7 16298392400045450423
23559900 14 18335972147156345729
23728640 28 17977673004480613777
25222932 49 17624136401127309695
3004659 81 17968093097233543454
312425 83 16225762995457520230
3421961 26 18340769363638013657
4017518 198 16245437356078037058
463206 1 18336824286101650547
5486654 36 18335717009145558177
58807428 26 17188985514111206689
59682541 52 18196630000088321159
633830 44 12324507715441060479
6433294 58 17904483252953687107
6669772 16 17837219534451149204
7288768 16 15116708942808656928
7970288 3 18342178864399549471
9709674 26 18262513831508289227

>  <PUBCHEM_SHAPE_MULTIPOLES>  (1) 
400.74
9.19
3.54
1.24
0.87
2.27
0.02
-9.97
1.24
-1.06
-0.92
-0.15
-0.42
-0.35

>  <PUBCHEM_SHAPE_SELFOVERLAP>  (1) 
860.448

>  <PUBCHEM_SHAPE_VOLUME>  (1) 
222.1

>  <PUBCHEM_COORDINATE_TYPE>  (1) 
2
5
10

$$$$
