48139
     RDKit          3D

 20 19  0  0  1  0  0  0  0  0999 V2000
   -4.0386    0.6413    0.3669 N   0  0  0  0  0  0  0  0  0  0  0  0
   -0.7418   -2.8951    0.2917 C   0  0  0  0  0  0  0  0  0  0  0  0
    0.5274   -2.4408   -0.4333 C   0  0  0  0  0  0  0  0  0  0  0  0
   -1.9745   -2.2034   -0.2449 C   0  0  0  0  0  0  0  0  0  0  0  0
    1.6866    1.0837    0.9589 C   0  0  0  0  0  0  0  0  0  0  0  0
    1.5137   -0.4090    0.7690 C   0  0  0  0  0  0  0  0  0  0  0  0
    0.7830   -0.9766   -0.2105 C   0  0  0  0  0  0  0  0  0  0  0  0
    3.1512    1.5400    0.9934 C   0  0  0  0  0  0  0  0  0  0  0  0
   -4.0756   -0.7827    0.0510 C   0  0  0  0  0  0  0  0  0  0  0  0
   -2.8258   -1.4775    0.5061 C   0  0  0  0  0  0  0  0  0  0  0  0
   -2.2270   -2.3917   -1.7174 C   0  0  0  0  0  0  0  0  0  0  0  0
    2.1880   -1.2721    1.8041 C   0  0  0  0  0  0  0  0  0  0  0  0
   -3.1880    1.3575   -0.5847 C   0  0  0  0  0  0  0  0  0  0  0  0
    3.8530    1.3312   -0.3198 C   0  0  0  0  0  0  0  0  0  0  0  0
   -5.3897    1.2040    0.3645 C   0  0  0  0  0  0  0  0  0  0  0  0
    4.9994    0.6652   -0.5540 C   0  0  0  0  0  0  0  0  0  0  0  0
   -2.6890    2.6496   -0.0146 C   0  0  0  0  0  0  0  0  0  0  0  0
    5.8223   -0.0417    0.4848 C   0  0  0  0  0  0  0  0  0  0  0  0
    5.5506    0.5695   -1.9519 C   0  0  0  0  0  0  0  0  0  0  0  0
   -2.9254    3.8483   -0.5596 C   0  0  0  0  0  0  0  0  0  0  0  0
  1  9  1  0
  1 13  1  0
  1 15  1  0
  2  3  1  0
  2  4  1  0
  3  7  1  0
  4 10  2  0
  4 11  1  0
  5  6  1  0
  5  8  1  0
  6  7  2  0
  6 12  1  0
  8 14  1  0
  9 10  1  0
 13 17  1  0
 14 16  2  3
 16 18  1  0
 16 19  1  0
 17 20  2  0
M  END
>  <PUBCHEM_COMPOUND_CID>  (1) 
48139

>  <PUBCHEM_CONFORMER_RMSD>  (1) 
1

>  <PUBCHEM_CONFORMER_DIVERSEORDER>  (1) 
1
152
25
226
202
230
316
113
89
272
302
268
332
235
279
264
338
76
329
252
225
199
237
108
185
324
132
211
147
201
82
102
265
51
60
22
163
280
176
321
40
135
49
212
197
41
160
345
320
234
209
236
277
63
120
255
294
68
142
347
26
327
55
248
269
172
85
346
229
83
32
340
200
14
66
79
75
303
8
253
39
130
251
213
67
214
170
12
19
270
162
322
3
275
250
271
139
62
258
173
219
9
92
246
334
198
208
148
69
151
38
244
241
330
193
10
301
259
80
232
273
177
97
203
106
46
140
90
256
53
128
297
2
11
103
6
129
221
93
127
306
267
247
290
84
240
88
216
342
194
145
231
4
223
266
207
310
122
65
48
166
171
81
34
96
178
28
242
188
17
57
307
339
146
312
217
254
189
337
56
284
138
165
74
131
263
134
21
72
278
18
222
111
292
182
257
288
228
245
159
95
100
328
42
313
289
144
149
238
164
323
319
291
169
20
58
192
77
286
73
31
33
35
206
167
298
158
174
224
126
293
276
274
343
86
5
16
143
45
281
196
249
112
233
309
181
305
296
348
315
23
121
114
195
59
107
101
295
304
282
260
205
287
191
118
123
98
157
326
94
210
179
161
27
227
116
243
71
344
218
283
109
47
183
115
125
341
91
37
99
50
119
15
317
137
184
153
175
215
261
52
333
150
78
156
180
29
285
154
331
220
13
136
190
311
187
299
141
43
186
36
54
87
110
314
325
204
335
262
308
104
70
105
24
124
30
318
61
44
117
239
168
336
155
64
300
133
7

>  <PUBCHEM_MMFF94_PARTIAL_CHARGES>  (1) 
26
1 -0.81
10 -0.29
11 0.14
12 0.14
13 0.41
14 -0.29
15 0.27
16 -0.28
17 -0.29
18 0.14
19 0.14
2 0.14
20 -0.3
27 0.15
3 0.14
32 0.15
4 -0.28
41 0.15
45 0.15
5 0.14
52 0.15
53 0.15
6 -0.28
7 -0.29
8 0.14
9 0.41

>  <PUBCHEM_EFFECTIVE_ROTOR_COUNT>  (1) 
10

>  <PUBCHEM_PHARMACOPHORE_FEATURES>  (1) 
7
1 1 cation
1 11 hydrophobe
1 12 hydrophobe
1 20 hydrophobe
3 16 18 19 hydrophobe
4 2 3 4 7 hydrophobe
4 5 6 8 14 hydrophobe

>  <PUBCHEM_HEAVY_ATOM_COUNT>  (1) 
20

>  <PUBCHEM_ATOM_DEF_STEREO_COUNT>  (1) 
0

>  <PUBCHEM_ATOM_UDEF_STEREO_COUNT>  (1) 
0

>  <PUBCHEM_BOND_DEF_STEREO_COUNT>  (1) 
0

>  <PUBCHEM_BOND_UDEF_STEREO_COUNT>  (1) 
2

>  <PUBCHEM_ISOTOPIC_ATOM_COUNT>  (1) 
0

>  <PUBCHEM_COMPONENT_COUNT>  (1) 
1

>  <PUBCHEM_CACTVS_TAUTO_COUNT>  (1) 
1

>  <PUBCHEM_CONFORMER_ID>  (1) 
0000BC0B00000001

>  <PUBCHEM_MMFF94_ENERGY>  (1) 
26.1668

>  <PUBCHEM_FEATURE_SELFOVERLAP>  (1) 
35.57

>  <PUBCHEM_SHAPE_FINGERPRINT>  (1) 
10087517 78 18122895693340770336
10498660 4 18338786901613694741
10615611 76 17459210562929808388
10670039 82 18409447003113472700
10759866 29 18187643561781965170
12100795 323 17681826315663193965
12596602 18 16660649595639149081
13177829 73 18408880729324693786
14251740 79 18130801057062672640
14251751 93 18411418410398276260
14251752 14 18409174312273128366
14251757 17 17916602937855761502
14251757 5 18265908019518524300
14251764 75 17911242715750439737
15021287 119 17385721375441955900
15052358 14 18130522872379180942
15183329 4 18412267242418567046
15575132 122 18114180826592241749
17977149 70 18338243669908481356
20567600 70 9727337031294400252
20621476 13 17473248882881049509
20621476 91 9439126390918542078
23559900 14 17131276899951821210
3459 83 16915405207234543374
5939293 188 17330262880503929179
633830 44 18116429435350213794
7808743 9 18410292501901382075

>  <PUBCHEM_SHAPE_MULTIPOLES>  (1) 
406.61
12.08
3.75
1.36
8.96
1.02
-0.24
6.32
-1.97
-4.55
-0.68
1.33
-0.29
-0.49

>  <PUBCHEM_SHAPE_SELFOVERLAP>  (1) 
767.634

>  <PUBCHEM_SHAPE_VOLUME>  (1) 
253.6

>  <PUBCHEM_COORDINATE_TYPE>  (1) 
2
5
10

$$$$
