48133
     RDKit          3D

 21 25  0  0  1  0  0  0  0  0999 V2000
    1.6575    3.6097   -0.0494 O   0  0  0  0  0  0  0  0  0  0  0  0
    2.3190    2.4208    0.3704 C   0  0  0  0  0  0  0  0  0  0  0  0
    1.5456    1.1433    0.2327 C   0  0  0  0  0  0  0  0  0  0  0  0
    2.7519    3.1520   -0.8543 C   0  0  0  0  0  0  0  0  0  0  0  0
    2.1673   -0.0971    0.1369 C   0  0  0  0  0  0  0  0  0  0  0  0
   -0.6875    0.1281    0.0791 C   0  0  0  0  0  0  0  0  0  0  0  0
    0.1567    1.2501    0.2042 C   0  0  0  0  0  0  0  0  0  0  0  0
    1.3798   -1.2661    0.0093 C   0  0  0  0  0  0  0  0  0  0  0  0
   -0.0602   -1.1484   -0.0196 C   0  0  0  0  0  0  0  0  0  0  0  0
   -2.1273    0.2458    0.0501 C   0  0  0  0  0  0  0  0  0  0  0  0
    3.5713   -0.1690    0.1688 C   0  0  0  0  0  0  0  0  0  0  0  0
   -2.9151   -0.9232   -0.0777 C   0  0  0  0  0  0  0  0  0  0  0  0
   -0.9044   -2.2704   -0.1446 C   0  0  0  0  0  0  0  0  0  0  0  0
    2.0909   -2.4920   -0.0822 C   0  0  0  0  0  0  0  0  0  0  0  0
   -2.2933   -2.1637   -0.1730 C   0  0  0  0  0  0  0  0  0  0  0  0
   -2.8384    1.4718    0.1415 C   0  0  0  0  0  0  0  0  0  0  0  0
    4.2286   -1.3906    0.0760 C   0  0  0  0  0  0  0  0  0  0  0  0
    3.4874   -2.5540   -0.0495 C   0  0  0  0  0  0  0  0  0  0  0  0
   -4.3189   -0.8513   -0.1097 C   0  0  0  0  0  0  0  0  0  0  0  0
   -4.2349    1.5338    0.1084 C   0  0  0  0  0  0  0  0  0  0  0  0
   -4.9761    0.3705   -0.0172 C   0  0  0  0  0  0  0  0  0  0  0  0
  1  2  1  0
  1  4  1  0
  2  3  1  0
  2  4  1  0
  3  5  1  0
  3  7  2  0
  5  8  2  0
  5 11  1  0
  6  7  1  0
  6  9  2  0
  6 10  1  0
  8  9  1  0
  8 14  1  0
  9 13  1  0
 10 12  2  0
 10 16  1  0
 11 17  2  0
 12 15  1  0
 12 19  1  0
 13 15  2  0
 14 18  2  0
 16 20  2  0
 17 18  1  0
 19 21  2  0
 20 21  1  0
M  END
>  <PUBCHEM_COMPOUND_CID>  (1) 
48133

>  <PUBCHEM_CONFORMER_RMSD>  (1) 
0.6

>  <PUBCHEM_CONFORMER_DIVERSEORDER>  (1) 
1
2

>  <PUBCHEM_MMFF94_PARTIAL_CHARGES>  (1) 
29
1 -0.3
11 -0.15
13 -0.15
14 -0.15
15 -0.15
16 -0.15
17 -0.15
18 -0.15
19 -0.15
2 0.08
20 -0.15
21 -0.15
22 0.1
23 0.1
24 0.1
25 0.15
26 0.15
27 0.15
28 0.15
29 0.15
3 -0.03
30 0.15
31 0.15
32 0.15
33 0.15
34 0.15
35 0.15
4 -0.05
7 -0.15

>  <PUBCHEM_EFFECTIVE_ROTOR_COUNT>  (1) 
1.6

>  <PUBCHEM_PHARMACOPHORE_FEATURES>  (1) 
5
1 1 acceptor
6 10 12 16 19 20 21 rings
6 3 5 6 7 8 9 rings
6 5 8 11 14 17 18 rings
6 6 9 10 12 13 15 rings

>  <PUBCHEM_HEAVY_ATOM_COUNT>  (1) 
21

>  <PUBCHEM_ATOM_DEF_STEREO_COUNT>  (1) 
0

>  <PUBCHEM_ATOM_UDEF_STEREO_COUNT>  (1) 
1

>  <PUBCHEM_BOND_DEF_STEREO_COUNT>  (1) 
0

>  <PUBCHEM_BOND_UDEF_STEREO_COUNT>  (1) 
0

>  <PUBCHEM_ISOTOPIC_ATOM_COUNT>  (1) 
0

>  <PUBCHEM_COMPONENT_COUNT>  (1) 
1

>  <PUBCHEM_CACTVS_TAUTO_COUNT>  (1) 
1

>  <PUBCHEM_CONFORMER_ID>  (1) 
0000BC0500000001

>  <PUBCHEM_MMFF94_ENERGY>  (1) 
77.7702

>  <PUBCHEM_FEATURE_SELFOVERLAP>  (1) 
25.441

>  <PUBCHEM_SHAPE_FINGERPRINT>  (1) 
10074138 170 15159507939869091659
10411042 1 18050285873513617274
10608611 8 18410008879493731889
10616163 171 18123189262412051735
10967382 1 18339360743219303642
1100329 8 18410575080379005698
11578080 2 16915360324963639307
12173636 292 17546162364689327380
12403259 226 18335134246539966925
12403260 363 18341607101820874429
12553582 1 18265884775103082534
13004483 165 18048586037422117258
13140716 1 18338227297228839712
13583140 156 17895198753856961955
138480 1 18410573959825090308
14022347 108 18192438472246873306
14178342 30 17981024625301813674
14223421 5 18264492969322853699
14790565 3 17403465070220618160
14866123 147 17044580037869891146
15003188 100 18262781979613288717
15042514 8 17761489188981059018
15196674 1 18340204102971367315
15442244 35 18412262809278886641
15475509 8 17699316289964278596
15536298 74 18343299279589884786
1601671 61 18411982421398406702
16087824 20 17906173953923847341
16945 1 18411138064823988490
17349148 13 17917709063590864839
17492 89 18339078310608031795
18785283 64 18261397805404335916
19591789 44 18050285864643497218
20642791 178 18189902088205882724
20645477 70 18335696191296766107
20671657 1 18411141363237604533
20739085 24 17837235699863207384
21065198 57 18409730664587408371
21267235 1 18340776939876492787
21478907 32 17761773966713903554
21501502 16 18268427004689060223
21709351 56 18339633439857803269
221490 88 18336553801676484595
22393880 68 18198071472057613572
2255824 54 18409730698825502542
2334 1 18051130590527048208
23366157 5 18114741637503703778
23402539 116 18127400168735007958
23558518 356 18044092586243200627
23559900 14 18341606036004405442
2748010 2 18049446138787317234
3004659 81 18116439146577939878
3071541 12 18410576231693712012
3091708 16 9503108132174501418
314173 41 18338521837485995654
335352 9 18339642230975376015
345986 75 17172342314460807202
34934 24 18339355280411605138
350125 39 18410578358114285497
4409770 3 17467337933938988956
474 4 18261670501277924608
5104073 3 18411139164826026195
543358 83 18411425007467945324
5939293 188 18411415094841733690
6443956 14 18337392639122975340
7364860 26 18339642338702972912
7832392 63 18412539903600263666
81228 2 17838071307695050314
84936 182 18127973224704382968
9709674 26 18410294752522787123
9981440 41 17832982028957697352
9999458 23 18259704493078215839

>  <PUBCHEM_SHAPE_MULTIPOLES>  (1) 
426.3
8.34
3.59
0.67
5.48
1.91
0.03
-0.44
0.07
-3.24
0.4
-0.11
0.12
-0.38

>  <PUBCHEM_SHAPE_SELFOVERLAP>  (1) 
977.214

>  <PUBCHEM_SHAPE_VOLUME>  (1) 
221.4

>  <PUBCHEM_COORDINATE_TYPE>  (1) 
2
5
10

$$$$
