48156
     RDKit          3D

 15 15  0  0  0  0  0  0  0  0999 V2000
   -0.2785   -1.6859   -1.3085 O   0  0  0  0  0  0  0  0  0  0  0  0
    0.7176    2.3362    0.9008 O   0  0  0  0  0  0  0  0  0  0  0  0
    3.6618   -1.1822    0.9887 O   0  0  0  0  0  0  0  0  0  0  0  0
    1.7328   -1.3971   -0.2434 N   0  0  0  0  0  0  0  0  0  0  0  0
    2.2300    0.6119    0.8608 N   0  0  0  0  0  0  0  0  0  0  0  0
    0.3658    0.5802   -0.7341 C   0  0  0  0  0  0  0  0  0  0  0  0
   -1.1302    0.9236   -0.6847 C   0  0  0  0  0  0  0  0  0  0  0  0
    0.9741    1.1424   -2.0314 C   0  0  0  0  0  0  0  0  0  0  0  0
    0.5400   -0.9346   -0.7789 C   0  0  0  0  0  0  0  0  0  0  0  0
    1.0835    1.2608    0.4272 C   0  0  0  0  0  0  0  0  0  0  0  0
   -1.7964    0.2338    0.4636 C   0  0  0  0  0  0  0  0  0  0  0  0
    2.6227   -0.6848    0.5515 C   0  0  0  0  0  0  0  0  0  0  0  0
   -3.0620   -0.2216    0.5270 C   0  0  0  0  0  0  0  0  0  0  0  0
   -3.6752   -0.9089    1.7140 C   0  0  0  0  0  0  0  0  0  0  0  0
   -3.9859   -0.0738   -0.6526 C   0  0  0  0  0  0  0  0  0  0  0  0
  1  9  2  0
  2 10  2  0
  3 12  2  0
  4  9  1  0
  4 12  1  0
  5 10  1  0
  5 12  1  0
  6  7  1  0
  6  8  1  0
  6  9  1  0
  6 10  1  0
  7 11  1  0
 11 13  2  3
 13 14  1  0
 13 15  1  0
M  END
>  <PUBCHEM_COMPOUND_CID>  (1) 
48156

>  <PUBCHEM_CONFORMER_RMSD>  (1) 
0.6

>  <PUBCHEM_CONFORMER_DIVERSEORDER>  (1) 
1
11
10
4
6
9
8
12
5
7
3
2

>  <PUBCHEM_MMFF94_PARTIAL_CHARGES>  (1) 
17
1 -0.57
10 0.57
11 -0.29
12 0.69
13 -0.28
14 0.14
15 0.14
2 -0.57
21 0.15
22 0.37
23 0.37
3 -0.57
4 -0.49
5 -0.49
6 0.12
7 0.14
9 0.57

>  <PUBCHEM_EFFECTIVE_ROTOR_COUNT>  (1) 
2.6

>  <PUBCHEM_PHARMACOPHORE_FEATURES>  (1) 
7
1 1 acceptor
1 2 acceptor
1 3 acceptor
1 4 donor
1 5 donor
3 13 14 15 hydrophobe
6 4 5 6 9 10 12 rings

>  <PUBCHEM_HEAVY_ATOM_COUNT>  (1) 
15

>  <PUBCHEM_ATOM_DEF_STEREO_COUNT>  (1) 
0

>  <PUBCHEM_ATOM_UDEF_STEREO_COUNT>  (1) 
0

>  <PUBCHEM_BOND_DEF_STEREO_COUNT>  (1) 
0

>  <PUBCHEM_BOND_UDEF_STEREO_COUNT>  (1) 
0

>  <PUBCHEM_ISOTOPIC_ATOM_COUNT>  (1) 
0

>  <PUBCHEM_COMPONENT_COUNT>  (1) 
1

>  <PUBCHEM_CACTVS_TAUTO_COUNT>  (1) 
5

>  <PUBCHEM_CONFORMER_ID>  (1) 
0000BC1C00000001

>  <PUBCHEM_MMFF94_ENERGY>  (1) 
37.7984

>  <PUBCHEM_FEATURE_SELFOVERLAP>  (1) 
35.563

>  <PUBCHEM_SHAPE_FINGERPRINT>  (1) 
10219947 1 18201716241038771963
10922049 32 13398622875014533996
11471102 22 18272651212235244003
11680611 10 17985543605101842471
12251169 10 18273493489908691619
12423570 1 15591818972522012804
12932764 1 18199203922127153245
13134695 92 18336256903540909085
13296908 3 17531251703322012361
13571099 52 12895066336354795520
13705890 14 17095250232302978434
15775835 57 18271246152518437141
16945 1 18272927224097872238
20671657 53 17240493472101306486
21524375 3 17126762420418779713
230 275 17274557485070565505
23559900 14 17313376791330268866
2748010 2 17555160360340277644
353137 74 9871477533860448215
568465 68 18409728434966534523
7364860 26 17387145353767060741
81228 2 17834693599205590337
81539 233 16734971165760093492

>  <PUBCHEM_SHAPE_MULTIPOLES>  (1) 
281.12
5.6
1.72
1.51
4.07
0.22
0.11
-2.8
-1.34
-0.66
-0.03
-0.14
0.19
0.43

>  <PUBCHEM_SHAPE_SELFOVERLAP>  (1) 
575.051

>  <PUBCHEM_SHAPE_VOLUME>  (1) 
160.9

>  <PUBCHEM_COORDINATE_TYPE>  (1) 
2
5
10

$$$$
