48154
     RDKit          3D

 17 17  0  0  1  0  0  0  0  0999 V2000
   -0.2610   -0.9943   -2.2127 O   0  0  0  0  0  0  0  0  0  0  0  0
    0.2309    0.7866    2.1043 O   0  0  0  0  0  0  0  0  0  0  0  0
    2.9544   -2.6031    0.6386 O   0  0  0  0  0  0  0  0  0  0  0  0
    1.4091   -1.7286   -0.8219 N   0  0  0  0  0  0  0  0  0  0  0  0
    1.6544   -0.8394    1.3348 N   0  0  0  0  0  0  0  0  0  0  0  0
    0.2714    0.3779   -0.2855 C   0  0  0  0  0  0  0  0  0  0  0  0
   -1.1757    0.8896   -0.3318 C   0  0  0  0  0  0  0  0  0  0  0  0
   -2.2117   -0.1173    0.2106 C   0  0  0  0  0  0  0  0  0  0  0  0
    1.2123    1.4625   -0.8399 C   0  0  0  0  0  0  0  0  0  0  0  0
    0.4106   -0.8405   -1.1928 C   0  0  0  0  0  0  0  0  0  0  0  0
    0.6788    0.1314    1.1637 C   0  0  0  0  0  0  0  0  0  0  0  0
   -3.6116    0.5307    0.1715 C   0  0  0  0  0  0  0  0  0  0  0  0
    1.1701    2.7103    0.0280 C   0  0  0  0  0  0  0  0  0  0  0  0
   -2.1787   -1.4346   -0.5704 C   0  0  0  0  0  0  0  0  0  0  0  0
   -4.7144   -0.3505    0.7417 C   0  0  0  0  0  0  0  0  0  0  0  0
    2.0818    3.7898   -0.5328 C   0  0  0  0  0  0  0  0  0  0  0  0
    2.0794   -1.7705    0.3947 C   0  0  0  0  0  0  0  0  0  0  0  0
  1 10  2  0
  2 11  2  0
  3 17  2  0
  4 10  1  0
  4 17  1  0
  5 11  1  0
  5 17  1  0
  6  7  1  0
  6  9  1  0
  6 10  1  0
  6 11  1  0
  7  8  1  0
  8 12  1  0
  8 14  1  0
  9 13  1  0
 12 15  1  0
 13 16  1  0
M  END
>  <PUBCHEM_COMPOUND_CID>  (1) 
48154

>  <PUBCHEM_CONFORMER_RMSD>  (1) 
0.8

>  <PUBCHEM_CONFORMER_DIVERSEORDER>  (1) 
1
6
2
5
4
3

>  <PUBCHEM_MMFF94_PARTIAL_CHARGES>  (1) 
11
1 -0.57
10 0.57
11 0.57
17 0.69
2 -0.57
3 -0.57
30 0.37
31 0.37
4 -0.49
5 -0.49
6 0.12

>  <PUBCHEM_EFFECTIVE_ROTOR_COUNT>  (1) 
5.6

>  <PUBCHEM_PHARMACOPHORE_FEATURES>  (1) 
9
1 1 acceptor
1 14 hydrophobe
1 15 hydrophobe
1 16 hydrophobe
1 2 acceptor
1 3 acceptor
1 4 donor
1 5 donor
6 4 5 6 10 11 17 rings

>  <PUBCHEM_HEAVY_ATOM_COUNT>  (1) 
17

>  <PUBCHEM_ATOM_DEF_STEREO_COUNT>  (1) 
0

>  <PUBCHEM_ATOM_UDEF_STEREO_COUNT>  (1) 
1

>  <PUBCHEM_BOND_DEF_STEREO_COUNT>  (1) 
0

>  <PUBCHEM_BOND_UDEF_STEREO_COUNT>  (1) 
0

>  <PUBCHEM_ISOTOPIC_ATOM_COUNT>  (1) 
0

>  <PUBCHEM_COMPONENT_COUNT>  (1) 
1

>  <PUBCHEM_CACTVS_TAUTO_COUNT>  (1) 
5

>  <PUBCHEM_CONFORMER_ID>  (1) 
0000BC1A00000001

>  <PUBCHEM_MMFF94_ENERGY>  (1) 
52.0152

>  <PUBCHEM_FEATURE_SELFOVERLAP>  (1) 
45.713

>  <PUBCHEM_SHAPE_FINGERPRINT>  (1) 
10382601 240 18267889318060672489
10922049 32 17976272548710369532
11578080 2 16589126265399689508
12423570 1 14828317745548013020
12532896 13 17763189433078446364
12592029 89 18337680831318040064
12644460 14 18338535109050595321
14817 1 13968092683227745800
15534591 1 17762620989719389597
15906896 17 12100978148112251612
16945 1 18409161147143454452
1813 80 18199477562624879214
19765921 60 17911811471939878089
20511035 2 18059843008970327183
20600515 1 18128261081891400559
21501502 16 18200311147437286063
21524375 3 17982458397012741669
22344851 341 18125448750301398076
23419403 2 17532348964086375092
23558518 356 17045697708698801517
2748010 2 18052235333198455868
298252 57 17627809821729759148
305870 269 18192712477747740637
394222 165 18199484322702787265
4175511 376 18263666076391006696
4175511 71 18337106748650884965
430814 3 18051125097058466709
5845 1 10372271042712432808
68419 9 17555145297341454996
7364860 26 18408887368801080529
81228 2 17549551703776378329
81539 233 18117280465639711205
9999458 23 18263936603359268180

>  <PUBCHEM_SHAPE_MULTIPOLES>  (1) 
322.28
4.97
3.11
1.47
7.2
1.37
-0.01
0.54
-1.05
-4.3
0.21
-0.25
-0.35
-0.75

>  <PUBCHEM_SHAPE_SELFOVERLAP>  (1) 
651.827

>  <PUBCHEM_SHAPE_VOLUME>  (1) 
186

>  <PUBCHEM_COORDINATE_TYPE>  (1) 
2
5
10

$$$$
