48160
     RDKit          3D

 16 16  0  0  1  0  0  0  0  0999 V2000
    2.0471   -2.3583    0.2595 O   0  0  0  0  0  0  0  0  0  0  0  0
    0.2773    1.3232   -2.0566 O   0  0  0  0  0  0  0  0  0  0  0  0
    3.2524    1.9239    1.3850 O   0  0  0  0  0  0  0  0  0  0  0  0
    2.5720   -0.2142    0.8841 N   0  0  0  0  0  0  0  0  0  0  0  0
    1.6874    1.6248   -0.2724 N   0  0  0  0  0  0  0  0  0  0  0  0
   -0.5646   -0.5536    0.3641 C   0  0  0  0  0  0  0  0  0  0  0  0
    0.6434   -0.5726   -0.5896 C   0  0  0  0  0  0  0  0  0  0  0  0
   -1.8329    0.0095   -0.3037 C   0  0  0  0  0  0  0  0  0  0  0  0
   -3.0438    0.0624    0.6328 C   0  0  0  0  0  0  0  0  0  0  0  0
   -0.8355   -1.9685    0.8815 C   0  0  0  0  0  0  0  0  0  0  0  0
    0.3287   -1.4784   -1.7891 C   0  0  0  0  0  0  0  0  0  0  0  0
    1.8196   -1.1508    0.1909 C   0  0  0  0  0  0  0  0  0  0  0  0
    0.8534    0.8588   -1.0731 C   0  0  0  0  0  0  0  0  0  0  0  0
   -4.2644    0.6536   -0.0745 C   0  0  0  0  0  0  0  0  0  0  0  0
    2.5407    1.1658    0.7238 C   0  0  0  0  0  0  0  0  0  0  0  0
   -5.4808    0.6745    0.8373 C   0  0  0  0  0  0  0  0  0  0  0  0
  1 12  2  0
  2 13  2  0
  3 15  2  0
  4 12  1  0
  4 15  1  0
  5 13  1  0
  5 15  1  0
  6  7  1  0
  6  8  1  0
  6 10  1  0
  7 11  1  0
  7 12  1  0
  7 13  1  0
  8  9  1  0
  9 14  1  0
 14 16  1  0
M  END
>  <PUBCHEM_COMPOUND_CID>  (1) 
48160

>  <PUBCHEM_CONFORMER_RMSD>  (1) 
0.6

>  <PUBCHEM_CONFORMER_DIVERSEORDER>  (1) 
4
14
1
22
17
13
24
19
15
18
2
3
5
23
6
7
8
20
12
25
11
16
21
9
10

>  <PUBCHEM_MMFF94_PARTIAL_CHARGES>  (1) 
11
1 -0.57
12 0.57
13 0.57
15 0.69
2 -0.57
3 -0.57
30 0.37
31 0.37
4 -0.49
5 -0.49
7 0.12

>  <PUBCHEM_EFFECTIVE_ROTOR_COUNT>  (1) 
4.6

>  <PUBCHEM_PHARMACOPHORE_FEATURES>  (1) 
9
1 1 acceptor
1 10 hydrophobe
1 16 hydrophobe
1 2 acceptor
1 3 acceptor
1 4 donor
1 5 donor
4 6 8 9 14 hydrophobe
6 4 5 7 12 13 15 rings

>  <PUBCHEM_HEAVY_ATOM_COUNT>  (1) 
16

>  <PUBCHEM_ATOM_DEF_STEREO_COUNT>  (1) 
0

>  <PUBCHEM_ATOM_UDEF_STEREO_COUNT>  (1) 
1

>  <PUBCHEM_BOND_DEF_STEREO_COUNT>  (1) 
0

>  <PUBCHEM_BOND_UDEF_STEREO_COUNT>  (1) 
0

>  <PUBCHEM_ISOTOPIC_ATOM_COUNT>  (1) 
0

>  <PUBCHEM_COMPONENT_COUNT>  (1) 
1

>  <PUBCHEM_CACTVS_TAUTO_COUNT>  (1) 
5

>  <PUBCHEM_CONFORMER_ID>  (1) 
0000BC2000000004

>  <PUBCHEM_MMFF94_ENERGY>  (1) 
43.13

>  <PUBCHEM_FEATURE_SELFOVERLAP>  (1) 
45.72

>  <PUBCHEM_SHAPE_FINGERPRINT>  (1) 
11086676 242 16805312314693765188
11961588 58 15122640666253826208
12138202 97 15840427188509108316
12251169 10 17968088780559036072
12423570 1 10174163202673238308
12725867 57 17968389935075741478
13571099 52 18059296585802945989
13922767 16 18261957349717411579
14178342 30 18042684081920509131
14817 1 13292122185941406350
15061688 2 17202758344932284320
15775835 57 18059851817747693817
16945 1 18334566967064046582
18186145 218 18338246977122469435
20231682 184 17203328931216166669
20388580 30 10809335620609611616
20511035 2 18337404845093392230
21637258 2 13479398475343190984
22892500 29 18343300353458328848
23382010 3 13182460052967079792
23419403 2 18047454656925417518
23557571 272 18198359527130164003
23590187 302 10807940353592241385
2748010 2 17751621183336777598
4047638 21 18202005408797788555
474 4 18270961353469518569
54040823 5 12973900190273645058
7364860 26 18131076982651733190

>  <PUBCHEM_SHAPE_MULTIPOLES>  (1) 
301.7
6.74
2.01
1.43
11.34
0.4
-0.6
-3.14
2.88
-1.71
0.2
-0.53
-0.15
0.37

>  <PUBCHEM_SHAPE_SELFOVERLAP>  (1) 
609.982

>  <PUBCHEM_SHAPE_VOLUME>  (1) 
174.4

>  <PUBCHEM_COORDINATE_TYPE>  (1) 
2
5
10

$$$$
