48173
     RDKit          3D

 15 15  0  0  0  0  0  0  0  0999 V2000
    0.0942    0.4217    2.3757 O   0  0  0  0  0  0  0  0  0  0  0  0
    0.0768    0.3218   -2.4284 O   0  0  0  0  0  0  0  0  0  0  0  0
   -0.4180   -3.4966    0.0558 O   0  0  0  0  0  0  0  0  0  0  0  0
   -0.1630   -1.5150    1.1858 N   0  0  0  0  0  0  0  0  0  0  0  0
   -0.1688   -1.5642   -1.1576 N   0  0  0  0  0  0  0  0  0  0  0  0
    0.0788    0.6115   -0.0310 C   0  0  0  0  0  0  0  0  0  0  0  0
    1.3738    1.4345   -0.0569 C   0  0  0  0  0  0  0  0  0  0  0  0
    2.5963    0.5310    0.0245 C   0  0  0  0  0  0  0  0  0  0  0  0
    0.0124   -0.1459    1.2843 C   0  0  0  0  0  0  0  0  0  0  0  0
    0.0041   -0.2002   -1.3140 C   0  0  0  0  0  0  0  0  0  0  0  0
   -1.1268    1.5091   -0.0402 C   0  0  0  0  0  0  0  0  0  0  0  0
    3.8784    1.3479    0.0237 C   0  0  0  0  0  0  0  0  0  0  0  0
   -0.2619   -2.2744    0.0299 C   0  0  0  0  0  0  0  0  0  0  0  0
   -2.3895    1.0638    0.0283 C   0  0  0  0  0  0  0  0  0  0  0  0
   -3.5869    1.9551    0.0200 C   0  0  0  0  0  0  0  0  0  0  0  0
  1  9  2  0
  2 10  2  0
  3 13  2  0
  4  9  1  0
  4 13  1  0
  5 10  1  0
  5 13  1  0
  6  7  1  0
  6  9  1  0
  6 10  1  0
  6 11  1  0
  7  8  1  0
  8 12  1  0
 11 14  2  0
 14 15  1  0
M  END
>  <PUBCHEM_COMPOUND_CID>  (1) 
48173

>  <PUBCHEM_CONFORMER_RMSD>  (1) 
0.6

>  <PUBCHEM_CONFORMER_DIVERSEORDER>  (1) 
1
4
3
2

>  <PUBCHEM_MMFF94_PARTIAL_CHARGES>  (1) 
16
1 -0.57
10 0.57
11 -0.29
13 0.69
14 -0.29
15 0.14
2 -0.57
20 0.15
21 0.37
22 0.37
26 0.15
3 -0.57
4 -0.49
5 -0.49
6 0.26
9 0.57

>  <PUBCHEM_EFFECTIVE_ROTOR_COUNT>  (1) 
3.6

>  <PUBCHEM_PHARMACOPHORE_FEATURES>  (1) 
8
1 1 acceptor
1 12 hydrophobe
1 15 hydrophobe
1 2 acceptor
1 3 acceptor
1 4 donor
1 5 donor
6 4 5 6 9 10 13 rings

>  <PUBCHEM_HEAVY_ATOM_COUNT>  (1) 
15

>  <PUBCHEM_ATOM_DEF_STEREO_COUNT>  (1) 
0

>  <PUBCHEM_ATOM_UDEF_STEREO_COUNT>  (1) 
0

>  <PUBCHEM_BOND_DEF_STEREO_COUNT>  (1) 
0

>  <PUBCHEM_BOND_UDEF_STEREO_COUNT>  (1) 
1

>  <PUBCHEM_ISOTOPIC_ATOM_COUNT>  (1) 
0

>  <PUBCHEM_COMPONENT_COUNT>  (1) 
1

>  <PUBCHEM_CACTVS_TAUTO_COUNT>  (1) 
5

>  <PUBCHEM_CONFORMER_ID>  (1) 
0000BC2D00000001

>  <PUBCHEM_MMFF94_ENERGY>  (1) 
27.1222

>  <PUBCHEM_FEATURE_SELFOVERLAP>  (1) 
40.638

>  <PUBCHEM_SHAPE_FINGERPRINT>  (1) 
10702982 57 18337099142131941360
10922049 32 18410862035744528784
12138202 97 18339092578388461044
12423570 1 10619759938914463985
12592029 89 18267023843258036954
12725867 57 15938387919477787429
13024252 1 13840806882293805236
14817 1 9149794260865204497
15852999 172 18129961021641994652
15906896 17 18270676605342216774
16945 1 18194403518061976140
187816 3 15770056125223716396
20473742 2 18045214943002191526
22344851 341 18200317615267604751
23419403 2 17554938404567090231
430814 3 18339624664517099369
68419 9 17411006817684430613
7364860 26 17977666407637660921
81228 2 17978210987789071649
81539 233 18263923237579382733

>  <PUBCHEM_SHAPE_MULTIPOLES>  (1) 
281.12
3.79
2.73
1.59
0.67
2.89
0.05
-4.11
-0.06
-0.59
-0.04
0.03
0.13
0

>  <PUBCHEM_SHAPE_SELFOVERLAP>  (1) 
574.707

>  <PUBCHEM_SHAPE_VOLUME>  (1) 
161.5

>  <PUBCHEM_COORDINATE_TYPE>  (1) 
2
5
10

$$$$
