48187
     RDKit          3D

 14 14  0  0  1  0  0  0  0  0999 V2000
    0.7209    2.5058   -1.1052 O   0  0  0  0  0  0  0  0  0  0  0  0
    1.5365    1.8875    0.9116 O   0  0  0  0  0  0  0  0  0  0  0  0
    3.8817   -1.6944   -0.0909 N   0  0  0  0  0  0  0  0  0  0  0  0
    1.5139   -0.9193   -0.0093 C   0  0  0  0  0  0  0  0  0  0  0  0
    0.5426    0.1793   -0.5444 C   0  0  0  0  0  0  0  0  0  0  0  0
    2.9680   -0.6057   -0.4262 C   0  0  0  0  0  0  0  0  0  0  0  0
   -0.9357   -0.0698   -0.2654 C   0  0  0  0  0  0  0  0  0  0  0  0
    1.4048   -1.1753    1.5002 C   0  0  0  0  0  0  0  0  0  0  0  0
    0.9972    1.5835   -0.1440 C   0  0  0  0  0  0  0  0  0  0  0  0
   -1.6254   -0.9473   -1.0746 C   0  0  0  0  0  0  0  0  0  0  0  0
   -1.5334    0.5903    0.7868 C   0  0  0  0  0  0  0  0  0  0  0  0
   -2.9776   -1.1755   -0.8193 C   0  0  0  0  0  0  0  0  0  0  0  0
   -2.8857    0.3620    1.0419 C   0  0  0  0  0  0  0  0  0  0  0  0
   -3.6077   -0.5209    0.2389 C   0  0  0  0  0  0  0  0  0  0  0  0
  1  9  1  0
  2  9  2  0
  3  6  1  0
  4  5  1  0
  4  6  1  0
  4  8  1  0
  5  7  1  0
  5  9  1  0
  7 10  2  0
  7 11  1  0
 10 12  1  0
 11 13  2  0
 12 14  2  0
 13 14  1  0
M  END
>  <PUBCHEM_COMPOUND_CID>  (1) 
48187

>  <PUBCHEM_CONFORMER_RMSD>  (1) 
0.6

>  <PUBCHEM_CONFORMER_DIVERSEORDER>  (1) 
4
21
31
39
18
35
29
36
6
24
3
7
34
38
33
26
9
22
17
11
28
27
8
19
32
23
14
10
15
37
25
30
13
16
5
20
1
2
12

>  <PUBCHEM_MMFF94_PARTIAL_CHARGES>  (1) 
20
1 -0.65
10 -0.15
11 -0.15
12 -0.15
13 -0.15
14 -0.15
2 -0.57
22 0.15
23 0.15
24 0.36
25 0.36
26 0.15
27 0.15
28 0.15
29 0.5
3 -0.99
5 0.2
6 0.27
7 -0.14
9 0.66

>  <PUBCHEM_EFFECTIVE_ROTOR_COUNT>  (1) 
4

>  <PUBCHEM_PHARMACOPHORE_FEATURES>  (1) 
7
1 1 acceptor
1 2 acceptor
1 3 cation
1 3 donor
1 8 hydrophobe
3 1 2 9 anion
6 7 10 11 12 13 14 rings

>  <PUBCHEM_HEAVY_ATOM_COUNT>  (1) 
14

>  <PUBCHEM_ATOM_DEF_STEREO_COUNT>  (1) 
0

>  <PUBCHEM_ATOM_UDEF_STEREO_COUNT>  (1) 
2

>  <PUBCHEM_BOND_DEF_STEREO_COUNT>  (1) 
0

>  <PUBCHEM_BOND_UDEF_STEREO_COUNT>  (1) 
0

>  <PUBCHEM_ISOTOPIC_ATOM_COUNT>  (1) 
0

>  <PUBCHEM_COMPONENT_COUNT>  (1) 
1

>  <PUBCHEM_CACTVS_TAUTO_COUNT>  (1) 
1

>  <PUBCHEM_CONFORMER_ID>  (1) 
0000BC3B00000004

>  <PUBCHEM_MMFF94_ENERGY>  (1) 
32.431

>  <PUBCHEM_FEATURE_SELFOVERLAP>  (1) 
35.581

>  <PUBCHEM_SHAPE_FINGERPRINT>  (1) 
12251169 10 18060143119920761955
12326174 3 17969206992569338520
12932764 1 18040705987835530503
13538477 17 17916866958159389791
13581323 91 16774077375634689303
14993402 34 18341615888712396367
15375462 189 18334861567397880746
15490181 8 17685494647187774700
15775835 57 17986965230861067457
16945 1 18059852809985183883
17804303 29 17417817201323378150
18186145 218 18187915214785862335
19422 9 18340496594576031086
20361792 2 18335412444076777094
20559304 39 17917153900376084993
20645477 70 18263915704671047223
20653091 64 18410855507425627616
207724 885 18342182141458686351
22445834 79 18342741806036556251
2255824 54 18335707207766561230
232386 152 17632297899550556375
23402539 116 18261956224710799782
23552423 10 18267584787588240415
23598291 2 18413110584705457375
2748010 2 18190436342760074316
3250762 1 17537462968929846242
6992083 37 18129956576155495329
7364860 26 18059009617700265896
74978 22 18410008875288669375
77492 1 18201165437463860349
81228 2 17829596280405139520

>  <PUBCHEM_SHAPE_MULTIPOLES>  (1) 
271.39
5.43
1.91
1.19
0.33
1.02
-0.19
-2.63
-0.22
-1.24
0.25
0.15
-0.01
-0.57

>  <PUBCHEM_SHAPE_SELFOVERLAP>  (1) 
553.77

>  <PUBCHEM_SHAPE_VOLUME>  (1) 
156.9

>  <PUBCHEM_COORDINATE_TYPE>  (1) 
2
5
10

$$$$
