48185
     RDKit          3D

 16 17  0  0  1  0  0  0  0  0999 V2000
    2.6611    0.0973   -1.6489 O   0  0  0  0  0  0  0  0  0  0  0  0
    3.7558   -0.2899    0.4628 O   0  0  0  0  0  0  0  0  0  0  0  0
   -3.5007    1.9422   -0.0411 O   0  0  0  0  0  0  0  0  0  0  0  0
   -1.3535    2.5300   -0.4656 O   0  0  0  0  0  0  0  0  0  0  0  0
   -3.0019   -3.1562   -0.6946 N   0  0  0  0  0  0  0  0  0  0  0  0
   -1.8084    0.3104    0.4380 C   0  0  0  0  0  0  0  0  0  0  0  0
   -2.5133   -0.7689   -0.4102 C   0  0  0  0  0  0  0  0  0  0  0  0
   -0.2947    0.1427    0.4823 C   0  0  0  0  0  0  0  0  0  0  0  0
    0.4147    0.2181   -0.7008 C   0  0  0  0  0  0  0  0  0  0  0  0
   -2.3058   -2.1829    0.1407 C   0  0  0  0  0  0  0  0  0  0  0  0
    1.7824    0.0600   -0.6103 C   0  0  0  0  0  0  0  0  0  0  0  0
    0.3128   -0.0799    1.7133 C   0  0  0  0  0  0  0  0  0  0  0  0
    2.4076   -0.1612    0.5955 C   0  0  0  0  0  0  0  0  0  0  0  0
   -2.1650    1.6993   -0.0765 C   0  0  0  0  0  0  0  0  0  0  0  0
    1.6995   -0.2365    1.7772 C   0  0  0  0  0  0  0  0  0  0  0  0
    3.9095   -0.1246   -0.9616 C   0  0  0  0  0  0  0  0  0  0  0  0
  1 11  1  0
  1 16  1  0
  2 13  1  0
  2 16  1  0
  3 14  1  0
  4 14  2  0
  5 10  1  0
  6  7  1  0
  6  8  1  0
  6 14  1  0
  7 10  1  0
  8  9  1  0
  8 12  2  0
  9 11  2  0
 11 13  1  0
 12 15  1  0
 13 15  2  0
M  END
>  <PUBCHEM_COMPOUND_CID>  (1) 
48185

>  <PUBCHEM_CONFORMER_RMSD>  (1) 
0.6

>  <PUBCHEM_CONFORMER_DIVERSEORDER>  (1) 
1
17
30
41
39
42
35
9
24
33
23
6
34
37
11
3
12
44
43
21
27
32
22
14
18
13
31
16
25
15
7
8
36
40
10
28
29
20
38
2
5
19
4
26

>  <PUBCHEM_MMFF94_PARTIAL_CHARGES>  (1) 
21
1 -0.36
10 0.27
11 0.08
12 -0.15
13 0.08
14 0.66
15 -0.15
16 0.56
2 -0.36
20 0.15
23 0.15
24 0.15
27 0.36
28 0.36
29 0.5
3 -0.65
4 -0.57
5 -0.99
6 0.2
8 -0.14
9 -0.15

>  <PUBCHEM_EFFECTIVE_ROTOR_COUNT>  (1) 
4.6

>  <PUBCHEM_PHARMACOPHORE_FEATURES>  (1) 
9
1 1 acceptor
1 2 acceptor
1 3 acceptor
1 4 acceptor
1 5 cation
1 5 donor
3 3 4 14 anion
5 1 2 11 13 16 rings
6 8 9 11 12 13 15 rings

>  <PUBCHEM_HEAVY_ATOM_COUNT>  (1) 
16

>  <PUBCHEM_ATOM_DEF_STEREO_COUNT>  (1) 
0

>  <PUBCHEM_ATOM_UDEF_STEREO_COUNT>  (1) 
1

>  <PUBCHEM_BOND_DEF_STEREO_COUNT>  (1) 
0

>  <PUBCHEM_BOND_UDEF_STEREO_COUNT>  (1) 
0

>  <PUBCHEM_ISOTOPIC_ATOM_COUNT>  (1) 
0

>  <PUBCHEM_COMPONENT_COUNT>  (1) 
1

>  <PUBCHEM_CACTVS_TAUTO_COUNT>  (1) 
1

>  <PUBCHEM_CONFORMER_ID>  (1) 
0000BC3900000001

>  <PUBCHEM_MMFF94_ENERGY>  (1) 
31.9527

>  <PUBCHEM_FEATURE_SELFOVERLAP>  (1) 
45.888

>  <PUBCHEM_SHAPE_FINGERPRINT>  (1) 
11471102 22 16056886878701869114
11543360 7 18339656632644128844
12138202 97 18341611456453566983
12202030 40 17632299007478357119
12500047 106 18341326678515195238
12553582 1 18191865841405648315
12932764 1 18410017623915343128
13296908 3 17203612583920430134
13538477 17 18187355506952383777
13583140 156 17915433100739689306
15279307 12 18115302263721809675
15342168 16 15720549535839869164
15669948 3 18334011675016227881
15775835 57 17749960946559701836
15852999 172 18057882442261885751
15906896 17 18186809045847852163
16752209 62 18335967723946568871
16945 1 18410290276834133121
17357779 13 17773297127887970895
17844478 74 17275109461213760106
18534176 82 18130790027412699773
20361792 2 18123747819015154735
20645476 183 18262518083457197573
20645477 70 16200152037199907460
20711985 344 18411411847957364283
20871999 31 18412546530824115119
21061003 4 16630254696063882482
21524375 3 17897728652391982729
21639500 275 16298389106047620748
22112679 90 17895460467013949072
228727 97 17749672990603487411
23402539 116 17894634760168270038
23493267 7 18059016077468112322
23526113 38 17417811678074459318
23557571 272 18272644684064614160
23559900 14 18129942279021977586
23598291 2 17678443174139584314
23598294 1 18335419054447917441
25 1 17057810599010664433
2748010 2 17346021368446395608
298252 57 18117281363403803817
53748568 43 17894915100598530738
6049 1 17845933034507631440
633830 44 17095821940327881574
6442390 28 17913225169722283641
77492 1 17749102283791397482
81228 2 18341039813955915019
88987 49 18338220596747632913

>  <PUBCHEM_SHAPE_MULTIPOLES>  (1) 
300.81
6
2.19
1.37
2.3
0.58
-0.35
0.98
1.48
-3.88
0.53
1.02
0.13
-0.36

>  <PUBCHEM_SHAPE_SELFOVERLAP>  (1) 
641.739

>  <PUBCHEM_SHAPE_VOLUME>  (1) 
166.9

>  <PUBCHEM_COORDINATE_TYPE>  (1) 
2
5
10

$$$$
