48196
     RDKit          3D

 13 12  0  0  0  0  0  0  0  0999 V2000
    0.3472   -0.5168    1.0427 S   0  0  0  0  0  0  0  0  0  0  0  0
   -1.2748    1.5570   -1.6054 O   0  0  0  0  0  0  0  0  0  0  0  0
   -0.9521    2.2758    0.5349 N   0  0  0  0  0  0  0  0  0  0  0  0
   -1.2369   -0.1376    0.1684 C   0  0  0  0  0  0  0  0  0  0  0  0
   -2.4029   -0.2576    1.1884 C   0  0  0  0  0  0  0  0  0  0  0  0
   -1.4554   -1.1820   -0.9604 C   0  0  0  0  0  0  0  0  0  0  0  0
   -1.1613    1.2916   -0.4094 C   0  0  0  0  0  0  0  0  0  0  0  0
   -3.7957    0.0696    0.6529 C   0  0  0  0  0  0  0  0  0  0  0  0
   -1.4705   -2.6467   -0.5280 C   0  0  0  0  0  0  0  0  0  0  0  0
    1.4446   -0.3147   -0.3733 C   0  0  0  0  0  0  0  0  0  0  0  0
    2.8605   -0.5683    0.0363 C   0  0  0  0  0  0  0  0  0  0  0  0
    3.8400    0.3416   -0.0709 C   0  0  0  0  0  0  0  0  0  0  0  0
    5.2574    0.0880    0.3235 C   0  0  0  0  0  0  0  0  0  0  0  0
  1  4  1  0
  1 10  1  0
  2  7  2  0
  3  7  1  0
  4  5  1  0
  4  6  1  0
  4  7  1  0
  5  8  1  0
  6  9  1  0
 10 11  1  0
 11 12  2  0
 12 13  1  0
M  END
>  <PUBCHEM_COMPOUND_CID>  (1) 
48196

>  <PUBCHEM_CONFORMER_RMSD>  (1) 
0.6

>  <PUBCHEM_CONFORMER_DIVERSEORDER>  (1) 
1
41
26
40
6
8
44
15
46
25
43
42
20
39
24
17
45
14
9
7
11
37
31
27
21
30
3
29
5
33
23
12
36
2
28
13
18
34
22
4
35
38
32
19
16
10

>  <PUBCHEM_MMFF94_PARTIAL_CHARGES>  (1) 
13
1 -0.46
10 0.37
11 -0.29
12 -0.29
13 0.14
2 -0.57
26 0.37
27 0.37
28 0.15
29 0.15
3 -0.8
4 0.29
7 0.57

>  <PUBCHEM_EFFECTIVE_ROTOR_COUNT>  (1) 
6

>  <PUBCHEM_PHARMACOPHORE_FEATURES>  (1) 
6
1 13 hydrophobe
1 2 acceptor
1 3 donor
1 8 hydrophobe
1 9 hydrophobe
6 1 4 5 6 10 11 hydrophobe

>  <PUBCHEM_HEAVY_ATOM_COUNT>  (1) 
13

>  <PUBCHEM_ATOM_DEF_STEREO_COUNT>  (1) 
0

>  <PUBCHEM_ATOM_UDEF_STEREO_COUNT>  (1) 
0

>  <PUBCHEM_BOND_DEF_STEREO_COUNT>  (1) 
0

>  <PUBCHEM_BOND_UDEF_STEREO_COUNT>  (1) 
1

>  <PUBCHEM_ISOTOPIC_ATOM_COUNT>  (1) 
0

>  <PUBCHEM_COMPONENT_COUNT>  (1) 
1

>  <PUBCHEM_CACTVS_TAUTO_COUNT>  (1) 
2

>  <PUBCHEM_CONFORMER_ID>  (1) 
0000BC4400000001

>  <PUBCHEM_MMFF94_ENERGY>  (1) 
25.1714

>  <PUBCHEM_FEATURE_SELFOVERLAP>  (1) 
30.456

>  <PUBCHEM_SHAPE_FINGERPRINT>  (1) 
10680689 15 18409450293749420146
11132069 177 18341898523636043418
12173636 292 18128258887216080552
12932764 1 18410847764185214058
12969540 114 18267001926361919301
13024252 1 16515685541768832579
13214271 11 18114186358256547219
14993402 34 18341326765010718103
15775835 57 18341897385422497162
16945 1 18269580310966724491
18186145 218 17917708011940978010
200 152 16081369678294700858
20645477 56 18341892974738692040
20871998 184 18334860472122847133
20871999 31 18268974510172220199
21339142 126 18333446551714422350
23402539 116 18114177570811559674
23557571 272 18202006542779995948
58051976 100 18343024411017050766

>  <PUBCHEM_SHAPE_MULTIPOLES>  (1) 
260.53
7.09
1.92
1.15
10.72
0.26
0.09
-0.2
-1.3
-1.54
0.5
-0.64
-0.12
-0.09

>  <PUBCHEM_SHAPE_SELFOVERLAP>  (1) 
475.818

>  <PUBCHEM_SHAPE_VOLUME>  (1) 
167.1

>  <PUBCHEM_COORDINATE_TYPE>  (1) 
2
5
10

$$$$
