48198
     RDKit          3D

 13 12  0  0  0  0  0  0  0  0999 V2000
    0.4904   -0.4871    0.8716 S   0  0  0  0  0  0  0  0  0  0  0  0
   -1.4075    1.4640   -1.6849 O   0  0  0  0  0  0  0  0  0  0  0  0
   -0.8272    2.2959    0.3579 N   0  0  0  0  0  0  0  0  0  0  0  0
   -1.1810   -0.1286    0.1676 C   0  0  0  0  0  0  0  0  0  0  0  0
   -2.2203   -0.1698    1.3220 C   0  0  0  0  0  0  0  0  0  0  0  0
   -1.5428   -1.2307   -0.8655 C   0  0  0  0  0  0  0  0  0  0  0  0
    1.4161   -0.3850   -0.6721 C   0  0  0  0  0  0  0  0  0  0  0  0
   -1.1573    1.2642   -0.4969 C   0  0  0  0  0  0  0  0  0  0  0  0
    2.9126   -0.6366   -0.4889 C   0  0  0  0  0  0  0  0  0  0  0  0
   -3.6625    0.1523    0.9346 C   0  0  0  0  0  0  0  0  0  0  0  0
   -1.5239   -2.6682   -0.3501 C   0  0  0  0  0  0  0  0  0  0  0  0
    3.6012    0.3848    0.4205 C   0  0  0  0  0  0  0  0  0  0  0  0
    5.1021    0.1449    0.4843 C   0  0  0  0  0  0  0  0  0  0  0  0
  1  4  1  0
  1  7  1  0
  2  8  2  0
  3  8  1  0
  4  5  1  0
  4  6  1  0
  4  8  1  0
  5 10  1  0
  6 11  1  0
  7  9  1  0
  9 12  1  0
 12 13  1  0
M  END
>  <PUBCHEM_COMPOUND_CID>  (1) 
48198

>  <PUBCHEM_CONFORMER_RMSD>  (1) 
0.8

>  <PUBCHEM_CONFORMER_DIVERSEORDER>  (1) 
1
30
57
56
39
34
7
23
29
35
47
15
12
8
43
14
42
31
49
41
11
51
27
50
37
2
53
52
18
40
33
54
5
6
24
21
55
26
3
17
48
28
9
22
20
4
45
10
46
16
19
38
32
36
13
44
25

>  <PUBCHEM_MMFF94_PARTIAL_CHARGES>  (1) 
8
1 -0.46
2 -0.57
3 -0.8
30 0.37
31 0.37
4 0.29
7 0.23
8 0.57

>  <PUBCHEM_EFFECTIVE_ROTOR_COUNT>  (1) 
7

>  <PUBCHEM_PHARMACOPHORE_FEATURES>  (1) 
7
1 10 hydrophobe
1 11 hydrophobe
1 13 hydrophobe
1 2 acceptor
1 3 donor
3 7 9 12 hydrophobe
4 1 4 5 6 hydrophobe

>  <PUBCHEM_HEAVY_ATOM_COUNT>  (1) 
13

>  <PUBCHEM_ATOM_DEF_STEREO_COUNT>  (1) 
0

>  <PUBCHEM_ATOM_UDEF_STEREO_COUNT>  (1) 
0

>  <PUBCHEM_BOND_DEF_STEREO_COUNT>  (1) 
0

>  <PUBCHEM_BOND_UDEF_STEREO_COUNT>  (1) 
0

>  <PUBCHEM_ISOTOPIC_ATOM_COUNT>  (1) 
0

>  <PUBCHEM_COMPONENT_COUNT>  (1) 
1

>  <PUBCHEM_CACTVS_TAUTO_COUNT>  (1) 
2

>  <PUBCHEM_CONFORMER_ID>  (1) 
0000BC4600000001

>  <PUBCHEM_MMFF94_ENERGY>  (1) 
25.4024

>  <PUBCHEM_FEATURE_SELFOVERLAP>  (1) 
35.59

>  <PUBCHEM_SHAPE_FINGERPRINT>  (1) 
10680689 15 18335138700858707698
10989021 7 18122339348529338446
11132069 177 18340777008606070810
12932764 1 18409729543695831114
12969540 114 18338499856117512861
13024252 1 16515401867789971843
13214271 11 18187089472457033443
13296909 8 17822284665840870012
14993402 34 18412263952420805719
15775835 57 18341615906187742546
16945 1 18196399016018809723
18186145 218 17988925553288713798
200 152 15719393957714201042
20645477 56 18412825759754560340
21339142 126 18260263057669457446
21501502 16 18124881406696867536
21524375 3 17538552219490537389
23402539 116 18412816988909148134
23419403 2 17341218800625081999
23557571 272 18272937150215647180
2748010 2 18047763593569746631

>  <PUBCHEM_SHAPE_MULTIPOLES>  (1) 
260.53
6.73
1.93
1.23
9.63
0.37
0.12
-0.3
-1.91
-1.5
0.46
-0.63
-0.19
0.12

>  <PUBCHEM_SHAPE_SELFOVERLAP>  (1) 
470.6

>  <PUBCHEM_SHAPE_VOLUME>  (1) 
168.9

>  <PUBCHEM_COORDINATE_TYPE>  (1) 
2
5
10

$$$$
