48204
     RDKit          3D

 11 10  0  0  0  0  0  0  0  0999 V2000
    0.6196    1.4199    1.3226 S   0  0  0  0  0  0  0  0  0  0  0  0
   -1.1487    0.0509   -1.6481 O   0  0  0  0  0  0  0  0  0  0  0  0
   -1.9613   -0.1399    0.5004 N   0  0  0  0  0  0  0  0  0  0  0  0
    0.4747   -0.0318    0.1849 C   0  0  0  0  0  0  0  0  0  0  0  0
    1.5642    0.0880   -0.9157 C   0  0  0  0  0  0  0  0  0  0  0  0
    0.7232   -1.3301    1.0005 C   0  0  0  0  0  0  0  0  0  0  0  0
   -0.9414   -0.0346   -0.4376 C   0  0  0  0  0  0  0  0  0  0  0  0
    3.0109    0.0635   -0.4261 C   0  0  0  0  0  0  0  0  0  0  0  0
    0.7024   -2.6322    0.2021 C   0  0  0  0  0  0  0  0  0  0  0  0
    0.3115    2.7034    0.0947 C   0  0  0  0  0  0  0  0  0  0  0  0
   -3.3550   -0.1571    0.1225 C   0  0  0  0  0  0  0  0  0  0  0  0
  1  4  1  0
  1 10  1  0
  2  7  2  0
  3  7  1  0
  3 11  1  0
  4  5  1  0
  4  6  1  0
  4  7  1  0
  5  8  1  0
  6  9  1  0
M  END
>  <PUBCHEM_COMPOUND_CID>  (1) 
48204

>  <PUBCHEM_CONFORMER_RMSD>  (1) 
0.6

>  <PUBCHEM_CONFORMER_DIVERSEORDER>  (1) 
5
24
23
25
18
17
14
11
8
2
20
9
21
1
22
4
15
19
10
13
7
16
12
3
6

>  <PUBCHEM_MMFF94_PARTIAL_CHARGES>  (1) 
8
1 -0.46
10 0.23
11 0.3
2 -0.57
22 0.37
3 -0.73
4 0.29
7 0.57

>  <PUBCHEM_EFFECTIVE_ROTOR_COUNT>  (1) 
5

>  <PUBCHEM_PHARMACOPHORE_FEATURES>  (1) 
6
1 10 hydrophobe
1 2 acceptor
1 3 donor
1 8 hydrophobe
1 9 hydrophobe
4 1 4 5 6 hydrophobe

>  <PUBCHEM_HEAVY_ATOM_COUNT>  (1) 
11

>  <PUBCHEM_ATOM_DEF_STEREO_COUNT>  (1) 
0

>  <PUBCHEM_ATOM_UDEF_STEREO_COUNT>  (1) 
0

>  <PUBCHEM_BOND_DEF_STEREO_COUNT>  (1) 
0

>  <PUBCHEM_BOND_UDEF_STEREO_COUNT>  (1) 
0

>  <PUBCHEM_ISOTOPIC_ATOM_COUNT>  (1) 
0

>  <PUBCHEM_COMPONENT_COUNT>  (1) 
1

>  <PUBCHEM_CACTVS_TAUTO_COUNT>  (1) 
2

>  <PUBCHEM_CONFORMER_ID>  (1) 
0000BC4C00000005

>  <PUBCHEM_MMFF94_ENERGY>  (1) 
23.5705

>  <PUBCHEM_FEATURE_SELFOVERLAP>  (1) 
30.507

>  <PUBCHEM_SHAPE_FINGERPRINT>  (1) 
10353120 184 18343029882203921068
12423570 1 17174890926468366904
12932764 1 18412816998274445247
15557651 10 17896031203758856612
16945 1 16950288433322147638
187816 3 18339376222692680996
207724 885 17561090206478583543
21930827 45 17976817919594295784
23595355 12 18122057877784739713
3250762 1 17619075366141398776
4369600 1 18413670218685773578
5084963 1 17983839357752069573
5337951 7 17983877827631533266
68250623 7 17764328144808948546

>  <PUBCHEM_SHAPE_MULTIPOLES>  (1) 
219.37
3.35
2.34
1.22
1.85
0.18
0.07
-0.28
0.51
-0.8
-0.59
-0.07
0.11
-0.01

>  <PUBCHEM_SHAPE_SELFOVERLAP>  (1) 
394.167

>  <PUBCHEM_SHAPE_VOLUME>  (1) 
144.2

>  <PUBCHEM_COORDINATE_TYPE>  (1) 
2
5
10

$$$$
