48228
     RDKit          3D

 15 16  0  0  0  0  0  0  0  0999 V2000
   -0.9576   -1.6483   -0.1968 O   0  0  0  0  0  0  0  0  0  0  0  0
    1.1641   -2.4333    0.1067 O   0  0  0  0  0  0  0  0  0  0  0  0
    2.2594    0.0439    0.9182 C   0  0  0  0  0  0  0  0  0  0  0  0
    3.1095    0.4141   -0.2942 C   0  0  0  0  0  0  0  0  0  0  0  0
    0.8167   -0.1265    0.5508 C   0  0  0  0  0  0  0  0  0  0  0  0
    4.5722    0.6161    0.1024 C   0  0  0  0  0  0  0  0  0  0  0  0
   -0.0558    0.8898    0.5822 C   0  0  0  0  0  0  0  0  0  0  0  0
   -1.4490    0.6926    0.2206 C   0  0  0  0  0  0  0  0  0  0  0  0
   -1.8691   -0.5762   -0.1614 C   0  0  0  0  0  0  0  0  0  0  0  0
    0.3829   -1.4882    0.1436 C   0  0  0  0  0  0  0  0  0  0  0  0
    5.4224    1.0216   -1.0912 C   0  0  0  0  0  0  0  0  0  0  0  0
   -2.3808    1.7330    0.2443 C   0  0  0  0  0  0  0  0  0  0  0  0
   -3.1905   -0.8352   -0.5196 C   0  0  0  0  0  0  0  0  0  0  0  0
   -3.7104    1.4891   -0.1122 C   0  0  0  0  0  0  0  0  0  0  0  0
   -4.1140    0.2074   -0.4933 C   0  0  0  0  0  0  0  0  0  0  0  0
  1  9  1  0
  1 10  1  0
  2 10  2  0
  3  4  1  0
  3  5  1  0
  4  6  1  0
  5  7  2  0
  5 10  1  0
  6 11  1  0
  7  8  1  0
  8  9  2  0
  8 12  1  0
  9 13  1  0
 12 14  2  0
 13 15  2  0
 14 15  1  0
M  END
>  <PUBCHEM_COMPOUND_CID>  (1) 
48228

>  <PUBCHEM_CONFORMER_RMSD>  (1) 
0.6

>  <PUBCHEM_CONFORMER_DIVERSEORDER>  (1) 
2
6
9
3
5
8
4
7
1

>  <PUBCHEM_MMFF94_PARTIAL_CHARGES>  (1) 
17
1 -0.23
10 0.71
12 -0.15
13 -0.15
14 -0.15
15 -0.15
2 -0.57
22 0.15
26 0.15
27 0.15
28 0.15
29 0.15
3 0.14
5 -0.12
7 -0.18
8 0.03
9 0.08

>  <PUBCHEM_EFFECTIVE_ROTOR_COUNT>  (1) 
3

>  <PUBCHEM_PHARMACOPHORE_FEATURES>  (1) 
4
1 11 hydrophobe
1 2 acceptor
6 1 5 7 8 9 10 rings
6 8 9 12 13 14 15 rings

>  <PUBCHEM_HEAVY_ATOM_COUNT>  (1) 
15

>  <PUBCHEM_ATOM_DEF_STEREO_COUNT>  (1) 
0

>  <PUBCHEM_ATOM_UDEF_STEREO_COUNT>  (1) 
0

>  <PUBCHEM_BOND_DEF_STEREO_COUNT>  (1) 
0

>  <PUBCHEM_BOND_UDEF_STEREO_COUNT>  (1) 
0

>  <PUBCHEM_ISOTOPIC_ATOM_COUNT>  (1) 
0

>  <PUBCHEM_COMPONENT_COUNT>  (1) 
1

>  <PUBCHEM_CACTVS_TAUTO_COUNT>  (1) 
1

>  <PUBCHEM_CONFORMER_ID>  (1) 
0000BC6400000002

>  <PUBCHEM_MMFF94_ENERGY>  (1) 
33.8141

>  <PUBCHEM_FEATURE_SELFOVERLAP>  (1) 
20.324

>  <PUBCHEM_SHAPE_FINGERPRINT>  (1) 
10498660 4 18410569552803847700
10726558 24 18411141329268054838
12119455 92 14562803378695160112
12236239 1 17968087643183772752
12251169 10 8142083178090225049
12346645 44 18409445860456876018
12390115 104 17987249850075891313
13380535 21 18270681965857125275
13380535 76 18409163290348264843
14911166 2 18273212023284473672
14993402 34 18334573572766205588
15536298 74 18200027331328884990
15775835 57 18409165485013002544
16945 1 18270944826545756371
17870717 6 17845671316781539060
1813 80 17389923584282013242
18186145 218 17775282785452094072
200 152 14836413527621448924
20300324 65 18201719582555158701
204376 136 16298107605417281056
20645476 183 18187644760188993298
20645477 56 18339641256661605240
20645477 70 16486986094252027404
20871999 31 18343023332589667804
21501502 16 18198052582844166851
21524375 3 18261108578201345834
21637258 2 14692561139819988957
22854114 59 14273452591858127660
23366157 5 18044094545138917986
23402539 116 18343015606228423548
23402655 69 18271799069750235845
23559900 14 17984977090589802918
2748010 2 18198615541477232407
296302 2 17531243937794411145
3071541 37 18337669711658234130
474 4 17603309275785149852
4990 188 17775849008312954324
57096353 35 18270946995356424623
58051976 378 18341608187751645020
7364860 26 18127969698515133486
76465 3 9439104447809514825
81539 233 18114457868993605050

>  <PUBCHEM_SHAPE_MULTIPOLES>  (1) 
296.95
8.9
1.81
0.85
8.56
0.67
0.03
-4.05
2.89
-0.53
0.01
0.46
-0.1
-0.57

>  <PUBCHEM_SHAPE_SELFOVERLAP>  (1) 
625.943

>  <PUBCHEM_SHAPE_VOLUME>  (1) 
166.7

>  <PUBCHEM_COORDINATE_TYPE>  (1) 
2
5
10

$$$$
