48220
     RDKit          3D

 15 14  0  0  0  0  0  0  0  0999 V2000
    0.7184    1.3235   -1.0898 S   0  0  0  0  0  0  0  0  0  0  0  0
   -0.1008   -1.2029    1.5274 O   0  0  0  0  0  0  0  0  0  0  0  0
   -0.6622   -1.4392   -0.6956 N   0  0  0  0  0  0  0  0  0  0  0  0
    1.3445   -0.1333   -0.1366 C   0  0  0  0  0  0  0  0  0  0  0  0
    2.1734    0.3819    1.0719 C   0  0  0  0  0  0  0  0  0  0  0  0
    2.2691   -0.9722   -1.0606 C   0  0  0  0  0  0  0  0  0  0  0  0
    0.1348   -0.9702    0.3416 C   0  0  0  0  0  0  0  0  0  0  0  0
    3.3557    1.2869    0.7310 C   0  0  0  0  0  0  0  0  0  0  0  0
    2.8393   -2.2504   -0.4488 C   0  0  0  0  0  0  0  0  0  0  0  0
   -0.2574    2.0604    0.2348 C   0  0  0  0  0  0  0  0  0  0  0  0
   -1.8385   -2.2428   -0.4588 C   0  0  0  0  0  0  0  0  0  0  0  0
   -0.9184    3.3118   -0.2467 C   0  0  0  0  0  0  0  0  0  0  0  0
   -3.0203   -1.3442   -0.3051 C   0  0  0  0  0  0  0  0  0  0  0  0
   -2.2428    3.5017   -0.2500 C   0  0  0  0  0  0  0  0  0  0  0  0
   -3.7948   -1.3109    0.7852 C   0  0  0  0  0  0  0  0  0  0  0  0
  1  4  1  0
  1 10  1  0
  2  7  2  0
  3  7  1  0
  3 11  1  0
  4  5  1  0
  4  6  1  0
  4  7  1  0
  5  8  1  0
  6  9  1  0
 10 12  1  0
 11 13  1  0
 12 14  2  0
 13 15  2  0
M  END
>  <PUBCHEM_COMPOUND_CID>  (1) 
48220

>  <PUBCHEM_CONFORMER_RMSD>  (1) 
0.8

>  <PUBCHEM_CONFORMER_DIVERSEORDER>  (1) 
1
20
48
59
42
68
72
56
46
86
29
12
27
47
26
14
78
65
25
15
28
66
69
43
49
50
74
70
24
81
37
58
5
84
75
85
80
8
67
4
76
44
33
34
52
55
57
18
51
83
32
54
3
82
53
19
11
16
21
45
71
39
10
30
73
6
31
38
64
62
2
36
41
79
13
60
40
22
77
23
63
17
61
35
9
7

>  <PUBCHEM_MMFF94_PARTIAL_CHARGES>  (1) 
18
1 -0.46
10 0.37
11 0.44
12 -0.29
13 -0.29
14 -0.3
15 -0.3
2 -0.57
26 0.37
3 -0.73
31 0.15
32 0.15
33 0.15
34 0.15
35 0.15
36 0.15
4 0.29
7 0.57

>  <PUBCHEM_EFFECTIVE_ROTOR_COUNT>  (1) 
9

>  <PUBCHEM_PHARMACOPHORE_FEATURES>  (1) 
7
1 14 hydrophobe
1 15 hydrophobe
1 2 acceptor
1 3 donor
1 8 hydrophobe
1 9 hydrophobe
6 1 4 5 6 10 12 hydrophobe

>  <PUBCHEM_HEAVY_ATOM_COUNT>  (1) 
15

>  <PUBCHEM_ATOM_DEF_STEREO_COUNT>  (1) 
0

>  <PUBCHEM_ATOM_UDEF_STEREO_COUNT>  (1) 
0

>  <PUBCHEM_BOND_DEF_STEREO_COUNT>  (1) 
0

>  <PUBCHEM_BOND_UDEF_STEREO_COUNT>  (1) 
0

>  <PUBCHEM_ISOTOPIC_ATOM_COUNT>  (1) 
0

>  <PUBCHEM_COMPONENT_COUNT>  (1) 
1

>  <PUBCHEM_CACTVS_TAUTO_COUNT>  (1) 
2

>  <PUBCHEM_CONFORMER_ID>  (1) 
0000BC5C00000001

>  <PUBCHEM_MMFF94_ENERGY>  (1) 
24.6717

>  <PUBCHEM_FEATURE_SELFOVERLAP>  (1) 
35.533

>  <PUBCHEM_SHAPE_FINGERPRINT>  (1) 
11680611 10 17969487226511458400
116883 192 18411983533462724670
12715332 25 17545041498679230214
16945 1 18269818960803375764
17041 49 18120087544557972435
18721546 61 18044674017509033139
20388701 513 18410564115322172096
20559304 39 18123196963573367055
20671657 1 17112125798828122565
21041028 32 18335146409876598143
21501502 16 18337107861685633630
22344851 262 17985263233873788686
22802520 49 18199748055085078422
23402539 116 18197764699512649250
23419403 2 17345168048686648626
23530152 11 17545042602543600861
23558518 356 18334012753295943608
23559900 14 17695063302681826438
2748010 2 18341045224960586773
3250762 1 18270675364687394604
5939293 188 17906452478252107885
7832392 63 18197222653518485655
81228 2 18261116257265527280

>  <PUBCHEM_SHAPE_MULTIPOLES>  (1) 
301.69
5.03
3.98
1.13
1.27
3.47
-0.12
-1.94
-0.7
2.64
0.57
-0.33
-0.14
0.76

>  <PUBCHEM_SHAPE_SELFOVERLAP>  (1) 
555.304

>  <PUBCHEM_SHAPE_VOLUME>  (1) 
191.8

>  <PUBCHEM_COORDINATE_TYPE>  (1) 
2
5
10

$$$$
