48223
     RDKit          3D

 20 21  0  0  0  0  0  0  0  0999 V2000
   -0.6149    3.5376   -0.3671 O   0  0  0  0  0  0  0  0  0  0  0  0
   -2.5977    2.7317    0.3702 O   0  0  0  0  0  0  0  0  0  0  0  0
    5.3357    1.0360   -0.3547 O   0  0  0  0  0  0  0  0  0  0  0  0
    4.0050    0.2809    1.3225 O   0  0  0  0  0  0  0  0  0  0  0  0
    0.5596    1.0857   -0.3281 N   0  0  0  0  0  0  0  0  0  0  0  0
   -5.8692   -1.2625   -0.8803 N   0  0  0  0  0  0  0  0  0  0  0  0
   -1.2387    0.0070    0.3993 C   0  0  0  0  0  0  0  0  0  0  0  0
   -0.1898   -0.9398    0.2314 C   0  0  0  0  0  0  0  0  0  0  0  0
    0.9272   -0.2370   -0.2258 C   0  0  0  0  0  0  0  0  0  0  0  0
   -2.6098   -0.2884    0.8676 C   0  0  0  0  0  0  0  0  0  0  0  0
   -0.7476    1.2430    0.0475 C   0  0  0  0  0  0  0  0  0  0  0  0
   -3.5792   -0.6263   -0.2810 C   0  0  0  0  0  0  0  0  0  0  0  0
    2.1504   -0.8588   -0.5001 C   0  0  0  0  0  0  0  0  0  0  0  0
   -0.0828   -2.3313    0.4250 C   0  0  0  0  0  0  0  0  0  0  0  0
    2.2327   -2.2398   -0.3006 C   0  0  0  0  0  0  0  0  0  0  0  0
    3.3461   -0.1117   -0.9887 C   0  0  0  0  0  0  0  0  0  0  0  0
   -4.9759   -0.9694    0.2343 C   0  0  0  0  0  0  0  0  0  0  0  0
    1.1345   -2.9667    0.1549 C   0  0  0  0  0  0  0  0  0  0  0  0
   -1.4187    2.5054    0.0468 C   0  0  0  0  0  0  0  0  0  0  0  0
    4.2329    0.4043    0.1270 C   0  0  0  0  0  0  0  0  0  0  0  0
  1 19  1  0
  2 19  2  0
  3 20  1  0
  4 20  2  0
  5  9  1  0
  5 11  1  0
  6 17  1  0
  7  8  1  0
  7 10  1  0
  7 11  2  0
  8  9  2  0
  8 14  1  0
  9 13  1  0
 10 12  1  0
 11 19  1  0
 12 17  1  0
 13 15  2  0
 13 16  1  0
 14 18  2  0
 15 18  1  0
 16 20  1  0
M  END
>  <PUBCHEM_COMPOUND_CID>  (1) 
48223

>  <PUBCHEM_CONFORMER_RMSD>  (1) 
0.8

>  <PUBCHEM_CONFORMER_DIVERSEORDER>  (1) 
2
13
21
8
32
28
27
9
17
31
30
12
25
24
16
26
1
22
4
6
20
18
7
11
23
15
14
29
10
3
19
5

>  <PUBCHEM_MMFF94_PARTIAL_CHARGES>  (1) 
26
1 -0.65
10 0.18
11 -0.24
13 -0.14
14 -0.15
15 -0.15
16 0.2
17 0.27
18 -0.15
19 0.81
2 -0.57
20 0.66
23 0.27
26 0.15
27 0.15
3 -0.65
32 0.15
33 0.36
34 0.36
35 0.5
36 0.5
4 -0.57
5 0.03
6 -0.99
7 -0.18
9 -0.15

>  <PUBCHEM_EFFECTIVE_ROTOR_COUNT>  (1) 
6

>  <PUBCHEM_PHARMACOPHORE_FEATURES>  (1) 
12
1 1 acceptor
1 2 acceptor
1 3 acceptor
1 4 acceptor
1 5 cation
1 5 donor
1 6 cation
1 6 donor
3 1 2 19 anion
3 3 4 20 anion
5 5 7 8 9 11 rings
6 8 9 13 14 15 18 rings

>  <PUBCHEM_HEAVY_ATOM_COUNT>  (1) 
20

>  <PUBCHEM_ATOM_DEF_STEREO_COUNT>  (1) 
0

>  <PUBCHEM_ATOM_UDEF_STEREO_COUNT>  (1) 
0

>  <PUBCHEM_BOND_DEF_STEREO_COUNT>  (1) 
0

>  <PUBCHEM_BOND_UDEF_STEREO_COUNT>  (1) 
0

>  <PUBCHEM_ISOTOPIC_ATOM_COUNT>  (1) 
0

>  <PUBCHEM_COMPONENT_COUNT>  (1) 
1

>  <PUBCHEM_CACTVS_TAUTO_COUNT>  (1) 
2

>  <PUBCHEM_CONFORMER_ID>  (1) 
0000BC5F00000002

>  <PUBCHEM_MMFF94_ENERGY>  (1) 
23.7487

>  <PUBCHEM_FEATURE_SELFOVERLAP>  (1) 
61.105

>  <PUBCHEM_SHAPE_FINGERPRINT>  (1) 
10090160 65 18260830418549413207
10366900 7 18411143558324277570
10608611 8 18048885095757196808
10670039 82 18261694605584066852
10906281 52 18261693531245993705
10967382 1 18337680800947125251
1100329 8 18193560196928091115
11578080 2 17774139216519502465
11806522 49 18342177786768017039
12011746 2 18410579526255329550
12403259 226 18340204069075514808
12403260 363 18336263440897709002
12553582 1 18264791950908016275
13083527 12 18043511838077576458
13140716 1 18120947362508468674
13862211 1 18410289250500752435
13911987 19 18189064246732362607
14178342 30 18264204704129493992
14223421 5 18267871575186489854
14576447 43 18343014536903243503
14787075 74 18130227159063715832
14790565 3 18338528537450672897
167882 2 17902796593616278565
16945 1 18263382372326438306
17349148 13 17968097495142527662
20510252 161 18341338816499261232
21029758 11 18410857698307432409
21501502 16 18120378661504238403
21524375 3 18343867710671071158
2334 1 17761506080791671086
23366157 5 17824835429859907890
23402539 116 18340764939653095247
23557571 272 18201167576220631804
23558518 356 18044662992296316233
23559900 14 17980191990146911082
23622692 118 18193551164596621543
266924 87 18336823083378159485
2748010 2 18119545240507133166
283562 15 18410859836795094089
2871803 45 18411421687347741767
34934 24 18411134740909905815
350125 39 18266183829570826770
4072396 5 18187352246988148162
474229 33 18410013268850438862
5104073 3 18266184937302969059
5283173 99 17969771995992037245
5486654 2 18338802315892935910
57003041 33 18408605885170982446
59554788 62 17750804246493148309
6913067 236 18341879810073235811
7164475 11 18265332798696072759
81228 2 18043547031176236409

>  <PUBCHEM_SHAPE_MULTIPOLES>  (1) 
378.15
8.9
3.16
0.85
2.95
1.37
-0.05
-1.04
0.99
0.82
0.03
-0.15
-0.07
-0.21

>  <PUBCHEM_SHAPE_SELFOVERLAP>  (1) 
806.743

>  <PUBCHEM_SHAPE_VOLUME>  (1) 
211.5

>  <PUBCHEM_COORDINATE_TYPE>  (1) 
2
5
10

$$$$
