48248
     RDKit          3D

 26 28  0  0  0  0  0  0  0  0999 V2000
    6.5439    1.4902    0.3226 O   0  0  0  0  0  0  0  0  0  0  0  0
   -0.3766   -1.7420    0.2257 O   0  0  0  0  0  0  0  0  0  0  0  0
   -2.3087   -2.3324   -0.8779 O   0  0  0  0  0  0  0  0  0  0  0  0
    4.6883   -0.6169   -0.1445 N   0  0  0  0  0  0  0  0  0  0  0  0
    3.9489   -1.8078    0.2689 C   0  0  0  0  0  0  0  0  0  0  0  0
    4.3500    0.5300    0.7097 C   0  0  0  0  0  0  0  0  0  0  0  0
    6.1367   -0.8628   -0.1068 C   0  0  0  0  0  0  0  0  0  0  0  0
    2.4992   -1.7238   -0.2057 C   0  0  0  0  0  0  0  0  0  0  0  0
    5.1421    1.7568    0.2666 C   0  0  0  0  0  0  0  0  0  0  0  0
    6.8872    0.3970   -0.5296 C   0  0  0  0  0  0  0  0  0  0  0  0
    1.7052   -2.9562    0.2242 C   0  0  0  0  0  0  0  0  0  0  0  0
    0.2689   -2.9032   -0.2797 C   0  0  0  0  0  0  0  0  0  0  0  0
   -2.2609   -0.3207    0.5102 C   0  0  0  0  0  0  0  0  0  0  0  0
   -1.6847   -1.5681   -0.1524 C   0  0  0  0  0  0  0  0  0  0  0  0
   -1.4955    0.9563    0.1895 C   0  0  0  0  0  0  0  0  0  0  0  0
   -3.7581   -0.1615    0.2782 C   0  0  0  0  0  0  0  0  0  0  0  0
   -1.4549    1.9968    1.1177 C   0  0  0  0  0  0  0  0  0  0  0  0
   -4.2206    0.5466   -0.8311 C   0  0  0  0  0  0  0  0  0  0  0  0
   -0.8346    1.0854   -1.0322 C   0  0  0  0  0  0  0  0  0  0  0  0
   -4.6667   -0.7242    1.1747 C   0  0  0  0  0  0  0  0  0  0  0  0
   -0.7538    3.1664    0.8242 C   0  0  0  0  0  0  0  0  0  0  0  0
   -5.5914    0.6923   -1.0438 C   0  0  0  0  0  0  0  0  0  0  0  0
   -0.1334    2.2550   -1.3255 C   0  0  0  0  0  0  0  0  0  0  0  0
   -6.0376   -0.5785    0.9618 C   0  0  0  0  0  0  0  0  0  0  0  0
   -0.0930    3.2955   -0.3973 C   0  0  0  0  0  0  0  0  0  0  0  0
   -6.4999    0.1297   -0.1474 C   0  0  0  0  0  0  0  0  0  0  0  0
  1  9  1  0
  1 10  1  0
  2 12  1  0
  2 14  1  0
  3 14  2  0
  4  5  1  0
  4  6  1  0
  4  7  1  0
  5  8  1  0
  6  9  1  0
  7 10  1  0
  8 11  1  0
 11 12  1  0
 13 14  1  0
 13 15  1  0
 13 16  1  0
 15 17  2  0
 15 19  1  0
 16 18  2  0
 16 20  1  0
 17 21  1  0
 18 22  1  0
 19 23  2  0
 20 24  2  0
 21 25  2  0
 22 26  2  0
 23 25  1  0
 24 26  1  0
M  END
>  <PUBCHEM_COMPOUND_CID>  (1) 
48248

>  <PUBCHEM_CONFORMER_RMSD>  (1) 
1

>  <PUBCHEM_CONFORMER_DIVERSEORDER>  (1) 
1
148
28
115
120
89
16
132
65
63
3
129
111
124
103
155
2
13
88
41
62
8
15
97
102
17
87
75
32
22
119
127
136
130
4
60
145
133
150
59
53
25
153
50
24
44
108
93
156
122
36
81
54
151
74
125
104
39
105
116
117
12
26
149
31
114
40
146
27
101
112
134
98
10
86
113
83
18
30
121
19
9
69
144
143
79
110
118
80
158
82
14
45
66
73
109
38
100
76
123
70
92
6
21
84
51
58
139
56
23
154
128
96
47
71
11
141
77
72
5
55
49
68
34
157
78
20
106
64
107
142
33
48
140
43
37
52
57
29
85
152
137
90
126
61
67
91
131
7
94
147
35
46
42
95
135
138
99

>  <PUBCHEM_MMFF94_PARTIAL_CHARGES>  (1) 
34
1 -0.56
10 0.28
12 0.28
13 0.35
14 0.66
15 -0.14
16 -0.14
17 -0.15
18 -0.15
19 -0.15
2 -0.43
20 -0.15
21 -0.15
22 -0.15
23 -0.15
24 -0.15
25 -0.15
26 -0.15
3 -0.57
4 -0.81
44 0.15
45 0.15
46 0.15
47 0.15
48 0.15
49 0.15
5 0.27
50 0.15
51 0.15
52 0.15
53 0.15
6 0.27
7 0.27
9 0.28

>  <PUBCHEM_EFFECTIVE_ROTOR_COUNT>  (1) 
10.2

>  <PUBCHEM_PHARMACOPHORE_FEATURES>  (1) 
6
1 1 acceptor
1 3 acceptor
1 4 cation
6 1 4 6 7 9 10 rings
6 15 17 19 21 23 25 rings
6 16 18 20 22 24 26 rings

>  <PUBCHEM_HEAVY_ATOM_COUNT>  (1) 
26

>  <PUBCHEM_ATOM_DEF_STEREO_COUNT>  (1) 
0

>  <PUBCHEM_ATOM_UDEF_STEREO_COUNT>  (1) 
0

>  <PUBCHEM_BOND_DEF_STEREO_COUNT>  (1) 
0

>  <PUBCHEM_BOND_UDEF_STEREO_COUNT>  (1) 
0

>  <PUBCHEM_ISOTOPIC_ATOM_COUNT>  (1) 
0

>  <PUBCHEM_COMPONENT_COUNT>  (1) 
1

>  <PUBCHEM_CACTVS_TAUTO_COUNT>  (1) 
1

>  <PUBCHEM_CONFORMER_ID>  (1) 
0000BC7800000001

>  <PUBCHEM_MMFF94_ENERGY>  (1) 
55.8904

>  <PUBCHEM_FEATURE_SELFOVERLAP>  (1) 
30.446

>  <PUBCHEM_SHAPE_FINGERPRINT>  (1) 
10006869 2 18337380526993901854
10290309 65 18114739331107136475
10670039 82 18192729868993332846
1100329 8 18267307705993795319
11112241 14 17271986938285457088
11578080 2 15865449685804443391
12838862 33 18338217345985150576
13402501 40 18410573998637759368
13911987 19 18340473471068351895
14117953 113 18334859416030748588
14394314 77 18412548742606380041
14617045 38 18411421726403062176
14784336 7 17773026673908312881
14840074 17 18131346401950390119
14955137 171 18339086003152064913
15575132 122 18335419028419891044
15849732 13 18342738542267314087
15927050 60 17764312043372656180
17899979 19 18187653517500904620
18336668 15 18187648041775856767
19611394 137 18116167721138991379
20642791 178 18115880774457477071
21585483 110 18410846668705036749
21623110 236 18339928095387720033
221357 26 18201722821846554210
23559900 14 18199740513212820808
350125 39 18411136892920253002
4197921 191 18259708875047391350
46194498 28 17702674233495226094
59755656 215 18411421687859282358

>  <PUBCHEM_SHAPE_MULTIPOLES>  (1) 
512.48
16.01
3.49
1.05
12.26
0.51
-0.03
0.42
0.53
1.51
-0.05
-0.84
0.33
0.43

>  <PUBCHEM_SHAPE_SELFOVERLAP>  (1) 
1071.182

>  <PUBCHEM_SHAPE_VOLUME>  (1) 
288.2

>  <PUBCHEM_COORDINATE_TYPE>  (1) 
2
5
10

$$$$
