48261
     RDKit          3D

 25 27  0  0  0  0  0  0  0  0999 V2000
   -5.6153    0.1557    1.7028 O   0  0  0  0  0  0  0  0  0  0  0  0
   -0.3421   -1.1961   -1.1174 O   0  0  0  0  0  0  0  0  0  0  0  0
    0.9154   -2.2476    0.4989 O   0  0  0  0  0  0  0  0  0  0  0  0
   -3.5814   -0.3325   -0.2276 N   0  0  0  0  0  0  0  0  0  0  0  0
   -3.0950   -0.4232   -1.6027 C   0  0  0  0  0  0  0  0  0  0  0  0
   -4.0447    1.0291    0.0733 C   0  0  0  0  0  0  0  0  0  0  0  0
   -4.6656   -1.2964    0.0069 C   0  0  0  0  0  0  0  0  0  0  0  0
   -2.5293   -1.8135   -1.8735 C   0  0  0  0  0  0  0  0  0  0  0  0
   -4.5580    1.0958    1.5088 C   0  0  0  0  0  0  0  0  0  0  0  0
   -5.1654   -1.1747    1.4437 C   0  0  0  0  0  0  0  0  0  0  0  0
   -1.3830   -2.1445   -0.9275 C   0  0  0  0  0  0  0  0  0  0  0  0
    1.8224   -0.3112   -0.6859 C   0  0  0  0  0  0  0  0  0  0  0  0
    0.7717   -1.3590   -0.3314 C   0  0  0  0  0  0  0  0  0  0  0  0
    1.3358    1.1241   -0.5359 C   0  0  0  0  0  0  0  0  0  0  0  0
    3.1522   -0.5393    0.0212 C   0  0  0  0  0  0  0  0  0  0  0  0
    1.8690    2.0971   -1.3557 C   0  0  0  0  0  0  0  0  0  0  0  0
    3.3604    0.0464    1.2525 C   0  0  0  0  0  0  0  0  0  0  0  0
    0.3769    1.4066    0.4148 C   0  0  0  0  0  0  0  0  0  0  0  0
    4.1060   -1.3247   -0.5918 C   0  0  0  0  0  0  0  0  0  0  0  0
    1.4233    3.4118   -1.2185 C   0  0  0  0  0  0  0  0  0  0  0  0
    4.5779   -0.1625    1.9001 C   0  0  0  0  0  0  0  0  0  0  0  0
   -0.0687    2.7212    0.5518 C   0  0  0  0  0  0  0  0  0  0  0  0
    5.3236   -1.5337    0.0560 C   0  0  0  0  0  0  0  0  0  0  0  0
    0.4545    3.7238   -0.2649 C   0  0  0  0  0  0  0  0  0  0  0  0
    5.5594   -0.9526    1.3020 C   0  0  0  0  0  0  0  0  0  0  0  0
  1  9  1  0
  1 10  1  0
  2 11  1  0
  2 13  1  0
  3 13  2  0
  4  5  1  0
  4  6  1  0
  4  7  1  0
  5  8  1  0
  6  9  1  0
  7 10  1  0
  8 11  1  0
 12 13  1  0
 12 14  1  0
 12 15  1  0
 14 16  2  0
 14 18  1  0
 15 17  2  0
 15 19  1  0
 16 20  1  0
 17 21  1  0
 18 22  2  0
 19 23  2  0
 20 24  2  0
 21 25  2  0
 22 24  1  0
 23 25  1  0
M  END
>  <PUBCHEM_COMPOUND_CID>  (1) 
48261

>  <PUBCHEM_CONFORMER_RMSD>  (1) 
1

>  <PUBCHEM_CONFORMER_DIVERSEORDER>  (1) 
1
100
13
82
62
84
107
98
91
25
18
93
104
38
48
22
67
117
6
23
109
43
101
92
99
97
80
3
79
78
58
61
115
89
42
2
83
17
112
114
69
51
90
35
33
106
66
86
9
28
57
39
4
29
30
108
72
116
73
7
19
36
65
87
55
20
63
96
70
24
12
26
81
8
74
110
105
68
41
77
37
113
52
21
94
59
46
27
16
10
75
71
95
49
50
15
5
31
54
44
103
47
34
56
64
60
111
45
76
88
32
102
40
53
11
85
14

>  <PUBCHEM_MMFF94_PARTIAL_CHARGES>  (1) 
34
1 -0.56
10 0.28
11 0.28
12 0.35
13 0.66
14 -0.14
15 -0.14
16 -0.15
17 -0.15
18 -0.15
19 -0.15
2 -0.43
20 -0.15
21 -0.15
22 -0.15
23 -0.15
24 -0.15
25 -0.15
3 -0.57
4 -0.81
41 0.15
42 0.15
43 0.15
44 0.15
45 0.15
46 0.15
47 0.15
48 0.15
49 0.15
5 0.27
50 0.15
6 0.27
7 0.27
9 0.28

>  <PUBCHEM_EFFECTIVE_ROTOR_COUNT>  (1) 
9.2

>  <PUBCHEM_PHARMACOPHORE_FEATURES>  (1) 
6
1 1 acceptor
1 3 acceptor
1 4 cation
6 1 4 6 7 9 10 rings
6 14 16 18 20 22 24 rings
6 15 17 19 21 23 25 rings

>  <PUBCHEM_HEAVY_ATOM_COUNT>  (1) 
25

>  <PUBCHEM_ATOM_DEF_STEREO_COUNT>  (1) 
0

>  <PUBCHEM_ATOM_UDEF_STEREO_COUNT>  (1) 
0

>  <PUBCHEM_BOND_DEF_STEREO_COUNT>  (1) 
0

>  <PUBCHEM_BOND_UDEF_STEREO_COUNT>  (1) 
0

>  <PUBCHEM_ISOTOPIC_ATOM_COUNT>  (1) 
0

>  <PUBCHEM_COMPONENT_COUNT>  (1) 
1

>  <PUBCHEM_CACTVS_TAUTO_COUNT>  (1) 
1

>  <PUBCHEM_CONFORMER_ID>  (1) 
0000BC8500000001

>  <PUBCHEM_MMFF94_ENERGY>  (1) 
59.3303

>  <PUBCHEM_FEATURE_SELFOVERLAP>  (1) 
30.447

>  <PUBCHEM_SHAPE_FINGERPRINT>  (1) 
10764073 3 17203047366430134884
10906281 52 18339081609838493806
11545043 162 16950276326342239815
11582403 64 15044679996403455232
11595378 159 18191854640209529210
12403259 118 18342748420945159499
12422481 6 18059292046259949590
12507557 5 18410853261890967815
12553582 1 18409727348587507790
12633257 1 18260561038870404643
12788726 201 18334856074788661228
13257819 101 14549015476965410776
13583140 156 18113613474713910647
13782708 43 17022626390114804915
13965767 371 17626691309604191097
14178342 30 18055367846311335521
14739800 52 17486203719251999816
14950920 106 18042421269293741411
14955137 171 18410299107350171194
15238133 3 18261689081638561743
15475509 8 18199489739373667228
15685185 35 17390815593376818748
17980427 23 17560229340303249612
1813 80 18333445431165886084
18785283 64 17969790863224030236
20261772 1 18343303634686644939
20600515 1 18201719569955132540
20739085 24 18409169939290013268
21033648 29 17917132923708430347
21304253 335 17775287179013700762
22393880 68 10881685749666255451
22849341 161 18410299116240838060
23559900 14 14634868686885177351
312423 11 18124310764620920223
3493558 16 17346022502481377432
392239 28 17846484912267647992
513202 73 18047758096481573682
5895379 119 17702961338598755597
6009941 240 17168973483409394621
7064713 232 17845664650887001865
7495541 125 16877661283724111190
81228 2 18337946797679229326
9981440 41 17114643676102616960

>  <PUBCHEM_SHAPE_MULTIPOLES>  (1) 
491.9
11.73
3.36
1.71
4.39
3.41
-0.2
-5.9
-6.54
-0.75
1.05
0.69
-0.13
-1.29

>  <PUBCHEM_SHAPE_SELFOVERLAP>  (1) 
1038.562

>  <PUBCHEM_SHAPE_VOLUME>  (1) 
273.9

>  <PUBCHEM_COORDINATE_TYPE>  (1) 
2
5
10

$$$$
