48265
     RDKit          3D

 25 27  0  0  0  0  0  0  0  0999 V2000
    0.0381    1.4203    1.5067 O   0  0  0  0  0  0  0  0  0  0  0  0
    1.1505    2.3328   -0.2903 O   0  0  0  0  0  0  0  0  0  0  0  0
   -3.5277   -0.4667   -0.8537 N   0  0  0  0  0  0  0  0  0  0  0  0
    1.9850    0.2784    0.7842 C   0  0  0  0  0  0  0  0  0  0  0  0
    1.3436   -1.0659    0.7079 C   0  0  0  0  0  0  0  0  0  0  0  0
    3.2421    0.3959   -0.0897 C   0  0  0  0  0  0  0  0  0  0  0  0
   -2.0590    2.0793    0.5357 C   0  0  0  0  0  0  0  0  0  0  0  0
    1.0308    1.4654    0.5658 C   0  0  0  0  0  0  0  0  0  0  0  0
   -0.9145    2.4870    1.4530 C   0  0  0  0  0  0  0  0  0  0  0  0
   -2.7709    0.8283    1.0475 C   0  0  0  0  0  0  0  0  0  0  0  0
    0.2307   -1.2623   -0.1099 C   0  0  0  0  0  0  0  0  0  0  0  0
    4.3335    1.0555    0.4204 C   0  0  0  0  0  0  0  0  0  0  0  0
    1.8563   -2.1267    1.4545 C   0  0  0  0  0  0  0  0  0  0  0  0
    3.2204   -0.1634   -1.3440 C   0  0  0  0  0  0  0  0  0  0  0  0
   -3.8759    0.3962    0.1180 C   0  0  0  0  0  0  0  0  0  0  0  0
   -0.3693   -2.5196   -0.1809 C   0  0  0  0  0  0  0  0  0  0  0  0
    5.4751    1.1622   -0.3739 C   0  0  0  0  0  0  0  0  0  0  0  0
    1.2564   -3.3839    1.3833 C   0  0  0  0  0  0  0  0  0  0  0  0
    4.3621   -0.0566   -2.1381 C   0  0  0  0  0  0  0  0  0  0  0  0
    0.1437   -3.5804    0.5657 C   0  0  0  0  0  0  0  0  0  0  0  0
    5.4894    0.6062   -1.6531 C   0  0  0  0  0  0  0  0  0  0  0  0
   -5.1441    0.8990    0.3153 C   0  0  0  0  0  0  0  0  0  0  0  0
   -6.1410    0.4806   -0.5592 C   0  0  0  0  0  0  0  0  0  0  0  0
   -4.5228   -0.8508   -1.6843 C   0  0  0  0  0  0  0  0  0  0  0  0
   -5.8326   -0.4110   -1.5808 C   0  0  0  0  0  0  0  0  0  0  0  0
  1  8  1  0
  1  9  1  0
  2  8  2  0
  3 15  2  0
  3 24  1  0
  4  5  1  0
  4  6  1  0
  4  8  1  0
  5 11  2  0
  5 13  1  0
  6 12  2  0
  6 14  1  0
  7  9  1  0
  7 10  1  0
 10 15  1  0
 11 16  1  0
 12 17  1  0
 13 18  2  0
 14 19  2  0
 15 22  1  0
 16 20  2  0
 17 21  2  0
 18 20  1  0
 19 21  1  0
 22 23  2  0
 23 25  1  0
 24 25  2  0
M  END
>  <PUBCHEM_COMPOUND_CID>  (1) 
48265

>  <PUBCHEM_CONFORMER_RMSD>  (1) 
1

>  <PUBCHEM_CONFORMER_DIVERSEORDER>  (1) 
2
208
111
90
94
152
6
227
219
4
124
70
173
29
218
107
78
85
110
75
186
210
47
143
178
217
104
151
86
145
26
201
13
223
118
169
144
130
57
72
87
109
20
7
115
172
181
185
156
46
120
8
28
66
202
88
215
157
164
99
71
83
171
18
1
209
126
105
14
212
205
150
97
121
187
23
166
9
134
43
119
135
100
221
63
56
211
136
165
224
42
61
50
154
129
106
44
84
79
54
89
128
69
103
3
116
162
73
65
74
214
184
158
77
32
222
220
204
155
170
123
226
101
95
45
183
64
98
27
141
199
30
193
25
92
198
177
142
174
82
203
132
21
194
40
160
175
16
39
176
149
192
12
188
207
138
112
10
38
137
91
52
108
96
195
80
167
33
114
197
168
5
24
55
113
180
179
76
37
153
127
15
11
189
102
213
140
49
147
93
190
59
68
159
196
36
225
31
148
206
200
131
81
58
41
146
34
60
19
17
139
117
22
161
48
125
182
133
62
122
53
51
191
35
216
67
163

>  <PUBCHEM_MMFF94_PARTIAL_CHARGES>  (1) 
38
1 -0.43
10 0.14
11 -0.15
12 -0.15
13 -0.15
14 -0.15
15 0.17
16 -0.15
17 -0.15
18 -0.15
19 -0.15
2 -0.57
20 -0.15
21 -0.15
22 -0.15
23 -0.15
24 0.16
25 -0.15
3 -0.62
33 0.15
34 0.15
35 0.15
36 0.15
37 0.15
38 0.15
39 0.15
4 0.35
40 0.15
41 0.15
42 0.15
43 0.15
44 0.15
45 0.15
46 0.15
5 -0.14
6 -0.14
8 0.66
9 0.28

>  <PUBCHEM_EFFECTIVE_ROTOR_COUNT>  (1) 
8

>  <PUBCHEM_PHARMACOPHORE_FEATURES>  (1) 
5
1 2 acceptor
1 3 acceptor
6 3 15 22 23 24 25 rings
6 5 11 13 16 18 20 rings
6 6 12 14 17 19 21 rings

>  <PUBCHEM_HEAVY_ATOM_COUNT>  (1) 
25

>  <PUBCHEM_ATOM_DEF_STEREO_COUNT>  (1) 
0

>  <PUBCHEM_ATOM_UDEF_STEREO_COUNT>  (1) 
0

>  <PUBCHEM_BOND_DEF_STEREO_COUNT>  (1) 
0

>  <PUBCHEM_BOND_UDEF_STEREO_COUNT>  (1) 
0

>  <PUBCHEM_ISOTOPIC_ATOM_COUNT>  (1) 
0

>  <PUBCHEM_COMPONENT_COUNT>  (1) 
1

>  <PUBCHEM_CACTVS_TAUTO_COUNT>  (1) 
2

>  <PUBCHEM_CONFORMER_ID>  (1) 
0000BC8900000002

>  <PUBCHEM_MMFF94_ENERGY>  (1) 
65.4204

>  <PUBCHEM_FEATURE_SELFOVERLAP>  (1) 
25.373

>  <PUBCHEM_SHAPE_FINGERPRINT>  (1) 
10090160 65 18259703376339116395
10319688 77 16741966988733375354
10759866 29 18265050232807919363
10764073 3 13046211793589753714
108634 29 18270966876802436846
11069576 57 18192416490377561415
11545043 162 14405186166940869385
12553582 1 18202273681351096977
12788726 201 17987801796386196145
13083527 12 17825655665354446162
13257819 101 16298387980534314558
13540713 5 18123191190899951553
13782708 43 14045731656519339213
13911987 19 18041579017137422308
13968360 50 18041275496162042514
14617045 38 18410856560578747465
14787075 74 18131350847284389024
14931854 50 18342166774761891199
15537594 2 18343304743595264017
17138139 8 18271795882673434159
173720 79 18187640319698809040
17492 54 18334295374701653985
17909252 39 17274547503709579526
19319366 153 18335411353335113891
20465049 17 18341895242492363847
21054139 6 18412258436965450905
21344244 181 17917162644882755190
22393880 68 18201714025252924401
23559900 14 16702011003211304817
25147074 1 18195531385063944937
2838139 119 16443060642395848293
2871803 45 18343300353606340217
33382 64 15698009517658962372
404807 78 17679025039968156587
4098825 35 17677887925700691461
484989 97 18048035461454319187
513532 50 17489009548672459266
563151 248 16699528223892257971
59755656 215 18131354098336586287
59755656 520 18334010618702771574
6823239 73 16773506703419571971

>  <PUBCHEM_SHAPE_MULTIPOLES>  (1) 
497.77
12.5
3.16
1.71
8.96
2.74
-0.5
-4.39
-7.84
-0.81
1.67
-0.46
0.12
-1.54

>  <PUBCHEM_SHAPE_SELFOVERLAP>  (1) 
1069.064

>  <PUBCHEM_SHAPE_VOLUME>  (1) 
271.7

>  <PUBCHEM_COORDINATE_TYPE>  (1) 
2
5
10

$$$$
