48279
     RDKit          3D

 21 21  0  0  1  0  0  0  0  0999 V2000
   -5.1023    2.8551   -0.1713 Cl  0  0  0  0  0  0  0  0  0  0  0  0
   -3.1426   -4.2084   -0.4166 Cl  0  0  0  0  0  0  0  0  0  0  0  0
   -0.9105   -0.1713    2.0017 O   0  0  0  0  0  0  0  0  0  0  0  0
    3.3533   -1.6396    0.7319 O   0  0  0  0  0  0  0  0  0  0  0  0
    5.1529   -0.3673    1.2687 O   0  0  0  0  0  0  0  0  0  0  0  0
   -2.4948   -0.2240   -0.3229 N   0  0  0  0  0  0  0  0  0  0  0  0
    5.2050    0.6110   -1.2952 N   0  0  0  0  0  0  0  0  0  0  0  0
   -1.1350    0.1546   -0.3644 C   0  0  0  0  0  0  0  0  0  0  0  0
    1.5296    0.9028   -0.4739 C   0  0  0  0  0  0  0  0  0  0  0  0
    2.9834    1.3117   -0.5338 C   0  0  0  0  0  0  0  0  0  0  0  0
   -3.5255    0.7001   -0.7492 C   0  0  0  0  0  0  0  0  0  0  0  0
   -2.8732   -1.5458    0.1332 C   0  0  0  0  0  0  0  0  0  0  0  0
   -0.3676    0.1741    0.8004 C   0  0  0  0  0  0  0  0  0  0  0  0
    3.9279    0.1246   -0.7782 C   0  0  0  0  0  0  0  0  0  0  0  0
    0.9744    0.5508    0.7450 C   0  0  0  0  0  0  0  0  0  0  0  0
   -0.5604    0.5118   -1.5842 C   0  0  0  0  0  0  0  0  0  0  0  0
    0.7815    0.8888   -1.6393 C   0  0  0  0  0  0  0  0  0  0  0  0
   -3.8427    1.7065    0.3457 C   0  0  0  0  0  0  0  0  0  0  0  0
   -2.6901   -2.5766   -0.9695 C   0  0  0  0  0  0  0  0  0  0  0  0
    4.2368   -0.6337    0.5013 C   0  0  0  0  0  0  0  0  0  0  0  0
   -1.5002    0.8748    2.7707 C   0  0  0  0  0  0  0  0  0  0  0  0
  1 18  1  0
  2 19  1  0
  3 13  1  0
  3 21  1  0
  4 20  1  0
  5 20  2  0
  6  8  1  0
  6 11  1  0
  6 12  1  0
  7 14  1  0
  8 13  2  0
  8 16  1  0
  9 10  1  0
  9 15  2  0
  9 17  1  0
 10 14  1  0
 11 18  1  0
 12 19  1  0
 13 15  1  0
 14 20  1  0
 16 17  2  0
M  END
>  <PUBCHEM_COMPOUND_CID>  (1) 
48279

>  <PUBCHEM_CONFORMER_RMSD>  (1) 
0.8

>  <PUBCHEM_CONFORMER_DIVERSEORDER>  (1) 
4
179
45
170
61
149
203
151
125
169
140
180
75
66
105
168
64
177
113
194
154
156
20
33
187
207
201
134
162
188
44
120
208
195
184
71
129
109
189
175
192
23
173
190
210
90
172
111
106
204
176
96
51
70
142
171
158
198
126
182
133
6
32
209
55
144
104
100
157
21
76
18
12
58
166
186
147
165
197
152
1
99
68
103
205
13
155
85
167
94
150
43
41
42
115
137
81
10
141
117
98
181
108
59
159
82
122
3
138
62
40
200
11
199
5
78
69
119
114
38
65
60
79
17
27
77
97
191
130
146
136
52
112
80
54
7
39
31
139
34
128
135
107
46
53
72
67
196
9
145
24
124
153
89
164
131
206
57
92
148
50
84
86
30
56
2
116
91
143
74
202
121
83
63
36
49
16
183
95
163
118
73
110
35
101
102
174
193
14
123
28
22
26
178
132
87
160
19
8
48
29
161
88
127
37
25
47
93
185
15

>  <PUBCHEM_MMFF94_PARTIAL_CHARGES>  (1) 
27
1 -0.29
10 0.14
11 0.37
12 0.37
13 0.08
14 0.33
15 -0.15
16 -0.15
17 -0.15
18 0.29
19 0.29
2 -0.29
20 0.66
21 0.28
29 0.15
3 -0.36
30 0.15
31 0.15
36 0.36
37 0.36
4 -0.65
41 0.5
5 -0.57
6 -0.84
7 -0.99
8 0.1
9 -0.14

>  <PUBCHEM_EFFECTIVE_ROTOR_COUNT>  (1) 
9

>  <PUBCHEM_PHARMACOPHORE_FEATURES>  (1) 
8
1 3 acceptor
1 4 acceptor
1 5 acceptor
1 6 cation
1 7 cation
1 7 donor
3 4 5 20 anion
6 8 9 13 15 16 17 rings

>  <PUBCHEM_HEAVY_ATOM_COUNT>  (1) 
21

>  <PUBCHEM_ATOM_DEF_STEREO_COUNT>  (1) 
0

>  <PUBCHEM_ATOM_UDEF_STEREO_COUNT>  (1) 
1

>  <PUBCHEM_BOND_DEF_STEREO_COUNT>  (1) 
0

>  <PUBCHEM_BOND_UDEF_STEREO_COUNT>  (1) 
0

>  <PUBCHEM_ISOTOPIC_ATOM_COUNT>  (1) 
0

>  <PUBCHEM_COMPONENT_COUNT>  (1) 
1

>  <PUBCHEM_CACTVS_TAUTO_COUNT>  (1) 
1

>  <PUBCHEM_CONFORMER_ID>  (1) 
0000BC9700000004

>  <PUBCHEM_MMFF94_ENERGY>  (1) 
69.6751

>  <PUBCHEM_FEATURE_SELFOVERLAP>  (1) 
40.654

>  <PUBCHEM_SHAPE_FINGERPRINT>  (1) 
10062212 137 18114175350044383794
11405975 8 18410289246068622028
11578080 2 18200020871424298480
11796584 16 18198626720945379695
12236239 1 17894912919557244589
12500047 106 18341892978838493813
12523318 42 18271796986406384186
12596599 1 18270692974064585238
12714826 92 17987801954993906967
12824470 246 18197784512181221395
13533116 47 17273420469720062382
13583140 156 17845923143240205064
13675066 3 17489869362586139180
13760787 19 18408889542291643124
14289901 80 18193838364843495280
16945 1 15430308182949029780
17349148 13 17203334355585898760
19141452 34 18334570205316569430
19784866 135 18267865180582001595
200 152 18259705623134519588
20645477 70 17313105255129602874
23402539 116 16878212113596022566
23493267 7 18059861657765539185
23503958 8 18337946913042323511
23559900 14 18198050572340757169
23598288 3 18117582793067265653
2748010 2 15649317816826544916
5104073 3 17822009830847117648
5283173 99 15697156210779096001
57100710 210 18198906014247112927
59755656 520 18410289182561686269
633830 44 16298659525620359948
81228 2 16557651662928486729

>  <PUBCHEM_SHAPE_MULTIPOLES>  (1) 
408.34
9.89
3.03
1.76
7.89
3.57
-0.95
-1.53
0.72
-6.2
0.48
0.18
-0.45
-1.06

>  <PUBCHEM_SHAPE_SELFOVERLAP>  (1) 
805.659

>  <PUBCHEM_SHAPE_VOLUME>  (1) 
245.6

>  <PUBCHEM_COORDINATE_TYPE>  (1) 
2
5
10

$$$$
