48277
     RDKit          3D

 21 22  0  0  1  0  0  0  0  0999 V2000
    0.0829    2.4961   -0.0632 O   0  0  0  0  0  0  0  0  0  0  0  0
    0.6842    0.6174    1.1324 O   0  0  0  0  0  0  0  0  0  0  0  0
   -2.3133   -0.0175   -0.2552 N   0  0  0  0  0  0  0  0  0  0  0  0
   -2.0539   -1.3141   -0.9177 C   0  0  0  0  0  0  0  0  0  0  0  0
   -3.5778    0.0069    0.5132 C   0  0  0  0  0  0  0  0  0  0  0  0
   -2.0552   -2.4563    0.1169 C   0  0  0  0  0  0  0  0  0  0  0  0
   -3.5848   -1.1171    1.5632 C   0  0  0  0  0  0  0  0  0  0  0  0
   -3.3322   -2.4848    0.9450 C   0  0  0  0  0  0  0  0  0  0  0  0
   -2.2098    1.1266   -1.1615 C   0  0  0  0  0  0  0  0  0  0  0  0
   -0.7070   -1.3468   -1.6570 C   0  0  0  0  0  0  0  0  0  0  0  0
   -4.8576   -0.0260   -0.3382 C   0  0  0  0  0  0  0  0  0  0  0  0
   -2.2907    2.4323   -0.3772 C   0  0  0  0  0  0  0  0  0  0  0  0
   -1.1557    2.5498    0.6310 C   0  0  0  0  0  0  0  0  0  0  0  0
    0.9213    1.4690    0.2864 C   0  0  0  0  0  0  0  0  0  0  0  0
    2.1838    1.5567   -0.5376 C   0  0  0  0  0  0  0  0  0  0  0  0
    3.1544    0.4411   -0.2470 C   0  0  0  0  0  0  0  0  0  0  0  0
    4.1086    0.6088    0.7459 C   0  0  0  0  0  0  0  0  0  0  0  0
    3.0784   -0.7365   -0.9764 C   0  0  0  0  0  0  0  0  0  0  0  0
    5.0068   -0.4238    1.0152 C   0  0  0  0  0  0  0  0  0  0  0  0
    3.9767   -1.7691   -0.7070 C   0  0  0  0  0  0  0  0  0  0  0  0
    4.9409   -1.6127    0.2889 C   0  0  0  0  0  0  0  0  0  0  0  0
  1 13  1  0
  1 14  1  0
  2 14  2  0
  3  4  1  0
  3  5  1  0
  3  9  1  0
  4  6  1  0
  4 10  1  0
  5  7  1  0
  5 11  1  0
  6  8  1  0
  7  8  1  0
  9 12  1  0
 12 13  1  0
 14 15  1  0
 15 16  1  0
 16 17  2  0
 16 18  1  0
 17 19  1  0
 18 20  2  0
 19 21  2  0
 20 21  1  0
M  END
>  <PUBCHEM_COMPOUND_CID>  (1) 
48277

>  <PUBCHEM_CONFORMER_RMSD>  (1) 
1

>  <PUBCHEM_CONFORMER_DIVERSEORDER>  (1) 
11
18
81
173
203
153
205
244
1
84
227
151
56
96
213
245
80
19
190
90
67
235
115
2
162
133
23
180
108
45
137
147
111
196
58
171
204
16
100
130
188
113
167
230
53
231
237
116
30
37
154
66
217
150
157
138
109
160
232
22
119
146
117
223
238
199
185
24
219
57
47
215
6
176
225
233
9
197
103
172
52
28
64
98
128
158
155
114
112
12
221
234
70
224
159
5
13
36
184
174
142
65
210
242
183
110
226
195
39
7
123
17
208
139
239
63
20
10
32
55
42
87
207
77
40
164
92
152
149
73
122
75
187
148
104
131
106
169
86
136
48
246
29
216
141
38
3
101
192
102
228
145
41
61
193
178
49
15
62
191
118
78
177
175
181
82
91
97
35
163
209
59
79
68
124
26
72
127
14
247
179
121
105
220
236
214
129
132
21
95
69
229
4
198
140
34
218
201
126
85
76
31
156
88
46
50
33
54
211
71
189
168
241
8
134
125
43
165
194
99
182
74
240
222
170
243
60
93
212
144
25
166
94
44
186
200
27
89
143
83
206
120
51
135
161
107
202

>  <PUBCHEM_MMFF94_PARTIAL_CHARGES>  (1) 
20
1 -0.43
13 0.28
14 0.66
15 0.2
16 -0.14
17 -0.15
18 -0.15
19 -0.15
2 -0.57
20 -0.15
21 -0.15
3 -0.81
4 0.27
44 0.15
45 0.15
46 0.15
47 0.15
48 0.15
5 0.27
9 0.27

>  <PUBCHEM_EFFECTIVE_ROTOR_COUNT>  (1) 
8.2

>  <PUBCHEM_PHARMACOPHORE_FEATURES>  (1) 
4
1 2 acceptor
1 3 cation
6 16 17 18 19 20 21 rings
6 3 4 5 6 7 8 rings

>  <PUBCHEM_HEAVY_ATOM_COUNT>  (1) 
21

>  <PUBCHEM_ATOM_DEF_STEREO_COUNT>  (1) 
0

>  <PUBCHEM_ATOM_UDEF_STEREO_COUNT>  (1) 
2

>  <PUBCHEM_BOND_DEF_STEREO_COUNT>  (1) 
0

>  <PUBCHEM_BOND_UDEF_STEREO_COUNT>  (1) 
0

>  <PUBCHEM_ISOTOPIC_ATOM_COUNT>  (1) 
0

>  <PUBCHEM_COMPONENT_COUNT>  (1) 
1

>  <PUBCHEM_CACTVS_TAUTO_COUNT>  (1) 
1

>  <PUBCHEM_CONFORMER_ID>  (1) 
0000BC950000000B

>  <PUBCHEM_MMFF94_ENERGY>  (1) 
32.4956

>  <PUBCHEM_FEATURE_SELFOVERLAP>  (1) 
20.297

>  <PUBCHEM_SHAPE_FINGERPRINT>  (1) 
10759866 29 18189629387541318892
107951 10 17971470707054715517
11370993 144 17418098663794605442
11552529 35 14547581765833158876
12011746 2 18334005082884922493
12035758 1 18339093627077717835
12422481 6 18055383287002880617
12553582 1 18270969067098601604
12633257 1 18340504325701767339
12788726 201 18339656580825452936
12990986 174 18263643025381170370
13402501 40 18271242729313451415
13551218 46 18343582906508968415
13726171 33 18053421831221618332
14251751 93 18260544476811541299
14251757 5 18188791551091343050
14251764 30 17169287012239076843
15163728 17 16520725518761972901
15352361 1 18410012160527038170
1813 80 17676491699850469437
19141452 34 18201437008436059423
20261772 1 18131632296569968806
20291156 8 18335140925013508992
20403669 9 18411420596272872750
21315759 227 17967809483579449618
21403212 168 18269283370461920481
221490 88 18411139143525431048
23559900 14 18338790213050064408
339767 52 18335411362151116186
559249 180 18043240250157116272
56633871 153 18271534156094020247
6786 2 16449225368354929525
7097593 13 17910120436215294127
79837 15 17766571148546248488
9709674 26 18272087137543697254

>  <PUBCHEM_SHAPE_MULTIPOLES>  (1) 
415.45
10.13
2.93
1.28
7.24
0.48
-0.04
-4.49
1.95
-1.46
0.13
-0.31
-0.35
0.82

>  <PUBCHEM_SHAPE_SELFOVERLAP>  (1) 
844.941

>  <PUBCHEM_SHAPE_VOLUME>  (1) 
241.2

>  <PUBCHEM_COORDINATE_TYPE>  (1) 
2
5
10

$$$$
