48271
     RDKit          3D

 23 24  0  0  1  0  0  0  0  0999 V2000
   -0.1060   -0.6645   -0.4699 O   0  0  0  0  0  0  0  0  0  0  0  0
    1.7343   -1.7310    0.4228 O   0  0  0  0  0  0  0  0  0  0  0  0
    7.5330    0.1403    0.1927 O   0  0  0  0  0  0  0  0  0  0  0  0
   -4.2620    0.1359   -0.1914 N   0  0  0  0  0  0  0  0  0  0  0  0
   -4.7504    1.4685    0.2244 C   0  0  0  0  0  0  0  0  0  0  0  0
   -5.1567   -0.9707    0.2150 C   0  0  0  0  0  0  0  0  0  0  0  0
   -6.1680    1.7176   -0.3264 C   0  0  0  0  0  0  0  0  0  0  0  0
   -6.5715   -0.7445   -0.3442 C   0  0  0  0  0  0  0  0  0  0  0  0
   -7.1397    0.6099    0.0558 C   0  0  0  0  0  0  0  0  0  0  0  0
   -2.8751   -0.1199    0.1983 C   0  0  0  0  0  0  0  0  0  0  0  0
   -3.8464    2.6127   -0.2608 C   0  0  0  0  0  0  0  0  0  0  0  0
   -5.1993   -1.2516    1.7260 C   0  0  0  0  0  0  0  0  0  0  0  0
   -2.3791   -1.4179   -0.4309 C   0  0  0  0  0  0  0  0  0  0  0  0
   -0.9434   -1.7226   -0.0252 C   0  0  0  0  0  0  0  0  0  0  0  0
    1.2277   -0.7933   -0.1781 C   0  0  0  0  0  0  0  0  0  0  0  0
    1.9709    0.4068   -0.7150 C   0  0  0  0  0  0  0  0  0  0  0  0
    3.4564    0.3353   -0.4723 C   0  0  0  0  0  0  0  0  0  0  0  0
    3.9831    0.8673    0.6953 C   0  0  0  0  0  0  0  0  0  0  0  0
    4.2739   -0.2609   -1.4212 C   0  0  0  0  0  0  0  0  0  0  0  0
    5.3584    0.8017    0.9191 C   0  0  0  0  0  0  0  0  0  0  0  0
    5.6492   -0.3265   -1.1972 C   0  0  0  0  0  0  0  0  0  0  0  0
    6.1914    0.2048   -0.0272 C   0  0  0  0  0  0  0  0  0  0  0  0
    8.0192    0.7025    1.4105 C   0  0  0  0  0  0  0  0  0  0  0  0
  1 14  1  0
  1 15  1  0
  2 15  2  0
  3 22  1  0
  3 23  1  0
  4  5  1  0
  4  6  1  0
  4 10  1  0
  5  7  1  0
  5 11  1  0
  6  8  1  0
  6 12  1  0
  7  9  1  0
  8  9  1  0
 10 13  1  0
 13 14  1  0
 15 16  1  0
 16 17  1  0
 17 18  2  0
 17 19  1  0
 18 20  1  0
 19 21  2  0
 20 22  2  0
 21 22  1  0
M  END
>  <PUBCHEM_COMPOUND_CID>  (1) 
48271

>  <PUBCHEM_CONFORMER_RMSD>  (1) 
1.2

>  <PUBCHEM_CONFORMER_DIVERSEORDER>  (1) 
21
45
7
89
29
66
8
40
90
68
36
46
52
24
67
69
83
77
57
102
73
16
87
44
99
47
35
62
65
2
32
70
96
85
63
10
17
103
76
13
22
84
94
1
61
39
80
5
51
55
100
49
33
25
50
30
60
42
53
12
82
34
92
74
19
64
81
78
56
18
3
93
71
72
41
14
9
28
98
20
15
95
37
75
48
54
31
27
101
26
11
58
4
79
43
23
86
97
88
59
38
6
91

>  <PUBCHEM_MMFF94_PARTIAL_CHARGES>  (1) 
21
1 -0.43
10 0.27
14 0.28
15 0.66
16 0.2
17 -0.14
18 -0.15
19 -0.15
2 -0.57
20 -0.15
21 -0.15
22 0.08
23 0.28
3 -0.36
4 -0.81
46 0.15
47 0.15
48 0.15
49 0.15
5 0.27
6 0.27

>  <PUBCHEM_EFFECTIVE_ROTOR_COUNT>  (1) 
9.2

>  <PUBCHEM_PHARMACOPHORE_FEATURES>  (1) 
5
1 2 acceptor
1 3 acceptor
1 4 cation
6 17 18 19 20 21 22 rings
6 4 5 6 7 8 9 rings

>  <PUBCHEM_HEAVY_ATOM_COUNT>  (1) 
23

>  <PUBCHEM_ATOM_DEF_STEREO_COUNT>  (1) 
0

>  <PUBCHEM_ATOM_UDEF_STEREO_COUNT>  (1) 
2

>  <PUBCHEM_BOND_DEF_STEREO_COUNT>  (1) 
0

>  <PUBCHEM_BOND_UDEF_STEREO_COUNT>  (1) 
0

>  <PUBCHEM_ISOTOPIC_ATOM_COUNT>  (1) 
0

>  <PUBCHEM_COMPONENT_COUNT>  (1) 
1

>  <PUBCHEM_CACTVS_TAUTO_COUNT>  (1) 
1

>  <PUBCHEM_CONFORMER_ID>  (1) 
0000BC8F00000015

>  <PUBCHEM_MMFF94_ENERGY>  (1) 
46.7694

>  <PUBCHEM_FEATURE_SELFOVERLAP>  (1) 
25.371

>  <PUBCHEM_SHAPE_FINGERPRINT>  (1) 
10 15 18409447024968234096
10299344 5 15864070983658230282
10730089 173 18413671301423675069
10968037 39 10447931672309504391
11315181 36 17386010602633766339
11524674 6 13623533467713858305
11646440 116 18201447994630230089
12082328 90 15195293027452444639
12091667 2 18411419531696087263
12236239 1 17385729122945370326
12596602 18 17168430470752540737
12838862 33 18336251363603089053
13073987 5 18337111168082828006
13288520 33 9799688195744104719
13402501 40 18272931622292660961
13668630 136 9007057976329441489
13685833 64 8070024471914191503
14123256 34 8862937294974557431
14251764 18 17821729455513292542
14251764 46 18040715879129265418
14729087 3 18343017791786339881
14933364 13 18273216391419064709
15183329 4 15985104102472738070
15419008 145 18115013114329955592
15419008 47 18060415811463298808
15461852 350 18131070484492795919
19489759 90 18186241740829149905
20157964 124 16917353636971314678
20281389 69 18413106165142034984
21150785 3 13039187022252657802
21315759 40 16950282931543193378
21756936 100 18411694405181768887
23522609 53 16371876013598922750
246663 6 13551468147356292234
2838139 119 18201712981148376292
3009799 131 17418093226418795210
3545911 37 18343024393235697407
5104073 3 18261680251402365307
5385378 56 18187362082716736474
54446538 1 18334297586567853861
59755656 215 18340493287741500270
59755656 520 18040431122734906315
636775 72 18272370837525464473
9981440 41 18186527579809677803

>  <PUBCHEM_SHAPE_MULTIPOLES>  (1) 
450.74
23.85
1.78
1.12
12.63
0.5
0.18
6.16
4.01
-2.9
0.06
1.06
-0.11
1.4

>  <PUBCHEM_SHAPE_SELFOVERLAP>  (1) 
915.273

>  <PUBCHEM_SHAPE_VOLUME>  (1) 
263

>  <PUBCHEM_COORDINATE_TYPE>  (1) 
2
5
10

$$$$
