48288
     RDKit          3D

 22 23  0  0  1  0  0  0  0  0999 V2000
    3.2867   -2.6928    0.7808 O   0  0  0  0  0  0  0  0  0  0  0  0
   -2.5063    0.6891   -0.4918 N   0  0  0  0  0  0  0  0  0  0  0  0
    2.0222    0.1603   -0.2198 N   0  0  0  0  0  0  0  0  0  0  0  0
   -2.0255    1.6923    0.5468 C   0  0  0  0  0  0  0  0  0  0  0  0
   -1.0890    1.0078    1.5521 C   0  0  0  0  0  0  0  0  0  0  0  0
    0.1410    0.3959    0.9020 C   0  0  0  0  0  0  0  0  0  0  0  0
   -3.1848   -0.4799    0.2079 C   0  0  0  0  0  0  0  0  0  0  0  0
   -3.4978    1.3642   -1.4285 C   0  0  0  0  0  0  0  0  0  0  0  0
   -1.3172    0.1797   -1.2934 C   0  0  0  0  0  0  0  0  0  0  0  0
    1.0720    1.0855    0.2011 C   0  0  0  0  0  0  0  0  0  0  0  0
    0.4727   -0.9554    0.9405 C   0  0  0  0  0  0  0  0  0  0  0  0
   -0.6797    1.9992    2.6476 C   0  0  0  0  0  0  0  0  0  0  0  0
    1.6499   -1.0844    0.2353 C   0  0  0  0  0  0  0  0  0  0  0  0
   -3.6873   -1.5136   -0.7454 C   0  0  0  0  0  0  0  0  0  0  0  0
   -0.2753   -2.0466    1.6012 C   0  0  0  0  0  0  0  0  0  0  0  0
    1.2715    2.4473   -0.1687 C   0  0  0  0  0  0  0  0  0  0  0  0
    3.1419    0.5090   -0.9756 C   0  0  0  0  0  0  0  0  0  0  0  0
    2.3876   -2.2911   -0.0020 C   0  0  0  0  0  0  0  0  0  0  0  0
    2.3514    2.7866   -0.8987 C   0  0  0  0  0  0  0  0  0  0  0  0
    3.3254    1.7935   -1.3214 C   0  0  0  0  0  0  0  0  0  0  0  0
   -4.9678   -1.8905   -0.8307 C   0  0  0  0  0  0  0  0  0  0  0  0
    2.1085   -3.1560   -1.2392 C   0  0  0  0  0  0  0  0  0  0  0  0
  1 18  2  0
  2  4  1  0
  2  7  1  0
  2  8  1  0
  2  9  1  0
  3 10  1  0
  3 13  1  0
  3 17  1  0
  4  5  1  0
  5  6  1  0
  5 12  1  0
  6 10  2  0
  6 11  1  0
  7 14  1  0
 10 16  1  0
 11 13  2  0
 11 15  1  0
 13 18  1  0
 14 21  2  0
 16 19  2  0
 17 20  2  0
 18 22  1  0
 19 20  1  0
M  CHG  1   2   1
M  END
>  <PUBCHEM_COMPOUND_CID>  (1) 
48288

>  <PUBCHEM_CONFORMER_RMSD>  (1) 
0.8

>  <PUBCHEM_CONFORMER_DIVERSEORDER>  (1) 
2
6
14
8
9
5
1
11
17
12
10
7
16
3
15
4
18
13

>  <PUBCHEM_MMFF94_PARTIAL_CHARGES>  (1) 
28
1 -0.57
10 -0.2
11 -0.18
13 -0.24
14 -0.29
15 0.18
16 -0.11
17 -0.18
18 0.59
19 -0.15
2 -1.01
20 -0.15
21 -0.3
22 0.06
3 0.33
37 0.15
4 0.5
41 0.15
42 0.15
43 0.15
44 0.15
45 0.15
46 0.15
5 0.18
6 -0.18
7 0.64
8 0.5
9 0.5

>  <PUBCHEM_EFFECTIVE_ROTOR_COUNT>  (1) 
6

>  <PUBCHEM_PHARMACOPHORE_FEATURES>  (1) 
7
1 1 acceptor
1 12 hydrophobe
1 2 cation
1 21 hydrophobe
1 3 cation
5 3 6 10 11 13 rings
6 3 10 16 17 19 20 rings

>  <PUBCHEM_HEAVY_ATOM_COUNT>  (1) 
22

>  <PUBCHEM_ATOM_DEF_STEREO_COUNT>  (1) 
0

>  <PUBCHEM_ATOM_UDEF_STEREO_COUNT>  (1) 
1

>  <PUBCHEM_BOND_DEF_STEREO_COUNT>  (1) 
0

>  <PUBCHEM_BOND_UDEF_STEREO_COUNT>  (1) 
0

>  <PUBCHEM_ISOTOPIC_ATOM_COUNT>  (1) 
0

>  <PUBCHEM_COMPONENT_COUNT>  (1) 
1

>  <PUBCHEM_CACTVS_TAUTO_COUNT>  (1) 
2

>  <PUBCHEM_CONFORMER_ID>  (1) 
0000BCA000000002

>  <PUBCHEM_MMFF94_ENERGY>  (1) 
87.5815

>  <PUBCHEM_FEATURE_SELFOVERLAP>  (1) 
35.622

>  <PUBCHEM_SHAPE_FINGERPRINT>  (1) 
10756046 5 18335415738764956261
10863032 1 18407758127631253973
11578080 2 17840559545390653600
11725454 13 16299776749588010013
12035759 4 18272104785379719646
12400797 292 18336543833078359491
12553582 1 17758695346972370026
12596599 1 18125164839894036574
12788726 201 17702684171906623793
13004483 165 16598683031642848715
13009979 54 18059014947818113714
13583140 156 15119251718320255874
14115302 16 18127964205541768193
14181834 199 18113626651383080126
15099037 8 18270685259859664491
15502722 9 18334572468716725254
16945 1 18264213667356761496
17349148 13 18409448081609024698
17357779 13 17253994667859180483
17492 54 17607243448484880269
20600515 1 17615926008125139289
20691752 17 15647046019660876109
21033648 29 12830587740238968853
21452121 199 18340470210507438675
21634736 98 18337957783514878798
21731516 1 17131542908208096325
22112679 90 17842569448250462016
22182313 1 17386584577504843787
22907989 373 17467667074383759572
229495 10 18265077802393598713
23114952 82 18260551112620403309
23419403 2 14567533435068937984
23559900 14 18266157505715951487
23598288 3 17632019620219768633
23598291 2 17982748380124175008
238 59 18114465655478883094
2748010 2 17970941914897045890
2871803 45 18263920111211917293
3060560 45 18118116111477264356
3323516 105 18126848433146690765
3737641 26 18266755756138194467
4280585 95 18050003290751855854
5262128 65 18340210674281918847
6992083 37 17766854826819290088
81228 2 17471579824260948200

>  <PUBCHEM_SHAPE_MULTIPOLES>  (1) 
436.92
6.55
3.49
1.77
5.6
1.39
0.74
2
-3.56
-2.38
-0.13
0.35
-0.57
-1.03

>  <PUBCHEM_SHAPE_SELFOVERLAP>  (1) 
913.672

>  <PUBCHEM_SHAPE_VOLUME>  (1) 
250.9

>  <PUBCHEM_COORDINATE_TYPE>  (1) 
2
5
10

$$$$
