48324
     RDKit          3D

 28 29  0  0  0  0  0  0  0  0999 V2000
   -0.6662    0.8234   -0.0871 O   0  0  0  0  0  0  0  0  0  0  0  0
    0.8057   -0.0457    1.4775 O   0  0  0  0  0  0  0  0  0  0  0  0
    0.3339   -0.1902   -1.8929 O   0  0  0  0  0  0  0  0  0  0  0  0
   -4.0063   -0.4599    0.2262 N   0  0  0  0  0  0  0  0  0  0  0  0
   -3.6902    0.8293    0.8878 C   0  0  0  0  0  0  0  0  0  0  0  0
   -2.9117    1.7906   -0.0393 C   0  0  0  0  0  0  0  0  0  0  0  0
   -5.1286   -1.1954    0.9721 C   0  0  0  0  0  0  0  0  0  0  0  0
   -4.4654   -0.2330   -1.2211 C   0  0  0  0  0  0  0  0  0  0  0  0
   -2.7742   -1.3754    0.1970 C   0  0  0  0  0  0  0  0  0  0  0  0
   -1.8303    1.0618   -0.8678 C   0  0  0  0  0  0  0  0  0  0  0  0
   -2.2339    2.8462    0.8597 C   0  0  0  0  0  0  0  0  0  0  0  0
   -3.8648    2.5198   -1.0047 C   0  0  0  0  0  0  0  0  0  0  0  0
   -4.6714   -1.5044    2.3810 C   0  0  0  0  0  0  0  0  0  0  0  0
   -4.8163   -1.5650   -1.8473 C   0  0  0  0  0  0  0  0  0  0  0  0
    0.3658    0.1779   -0.7246 C   0  0  0  0  0  0  0  0  0  0  0  0
    1.5367   -0.0532    0.2343 C   0  0  0  0  0  0  0  0  0  0  0  0
    2.2014   -1.4173    0.0367 C   0  0  0  0  0  0  0  0  0  0  0  0
    2.5786    1.0680    0.2260 C   0  0  0  0  0  0  0  0  0  0  0  0
    2.9332   -1.6752   -1.1225 C   0  0  0  0  0  0  0  0  0  0  0  0
    3.6025    1.0757    1.1733 C   0  0  0  0  0  0  0  0  0  0  0  0
    2.0760   -2.4030    1.0159 C   0  0  0  0  0  0  0  0  0  0  0  0
    2.5047    2.0819   -0.7292 C   0  0  0  0  0  0  0  0  0  0  0  0
    3.5393   -2.9185   -1.3027 C   0  0  0  0  0  0  0  0  0  0  0  0
    4.5523    2.0972    1.1657 C   0  0  0  0  0  0  0  0  0  0  0  0
    2.6823   -3.6462    0.8357 C   0  0  0  0  0  0  0  0  0  0  0  0
    3.4546    3.1034   -0.7368 C   0  0  0  0  0  0  0  0  0  0  0  0
    3.4139   -3.9038   -0.3237 C   0  0  0  0  0  0  0  0  0  0  0  0
    4.4783    3.1110    0.2106 C   0  0  0  0  0  0  0  0  0  0  0  0
  1 10  1  0
  1 15  1  0
  2 16  1  0
  3 15  2  0
  4  5  1  0
  4  7  1  0
  4  8  1  0
  4  9  1  0
  5  6  1  0
  6 10  1  0
  6 11  1  0
  6 12  1  0
  7 13  1  0
  8 14  1  0
 15 16  1  0
 16 17  1  0
 16 18  1  0
 17 19  2  0
 17 21  1  0
 18 20  2  0
 18 22  1  0
 19 23  1  0
 20 24  1  0
 21 25  2  0
 22 26  2  0
 23 27  2  0
 24 28  2  0
 25 27  1  0
 26 28  1  0
M  CHG  1   4   1
M  END
>  <PUBCHEM_COMPOUND_CID>  (1) 
48324

>  <PUBCHEM_CONFORMER_RMSD>  (1) 
1

>  <PUBCHEM_CONFORMER_DIVERSEORDER>  (1) 
28
24
39
51
74
23
86
96
26
63
58
60
68
84
36
75
91
69
92
47
18
89
87
99
72
20
71
31
62
32
88
53
33
81
48
29
38
55
77
80
12
46
59
83
82
10
67
27
98
21
30
16
70
93
42
34
25
66
35
13
43
64
57
19
50
97
40
76
11
44
79
37
54
56
52
6
61
22
8
65
3
85
78
5
9
2
17
94
73
90
49
41
45
14
7
95
4
1
15

>  <PUBCHEM_MMFF94_PARTIAL_CHARGES>  (1) 
34
1 -0.43
10 0.28
15 0.66
16 0.63
17 -0.14
18 -0.14
19 -0.15
2 -0.68
20 -0.15
21 -0.15
22 -0.15
23 -0.15
24 -0.15
25 -0.15
26 -0.15
27 -0.15
28 -0.15
3 -0.57
4 -1.01
5 0.5
52 0.4
53 0.15
54 0.15
55 0.15
56 0.15
57 0.15
58 0.15
59 0.15
60 0.15
61 0.15
62 0.15
7 0.5
8 0.5
9 0.5

>  <PUBCHEM_EFFECTIVE_ROTOR_COUNT>  (1) 
10

>  <PUBCHEM_PHARMACOPHORE_FEATURES>  (1) 
7
1 2 acceptor
1 2 donor
1 3 acceptor
1 4 cation
3 6 11 12 hydrophobe
6 17 19 21 23 25 27 rings
6 18 20 22 24 26 28 rings

>  <PUBCHEM_HEAVY_ATOM_COUNT>  (1) 
28

>  <PUBCHEM_ATOM_DEF_STEREO_COUNT>  (1) 
0

>  <PUBCHEM_ATOM_UDEF_STEREO_COUNT>  (1) 
0

>  <PUBCHEM_BOND_DEF_STEREO_COUNT>  (1) 
0

>  <PUBCHEM_BOND_UDEF_STEREO_COUNT>  (1) 
0

>  <PUBCHEM_ISOTOPIC_ATOM_COUNT>  (1) 
0

>  <PUBCHEM_COMPONENT_COUNT>  (1) 
1

>  <PUBCHEM_CACTVS_TAUTO_COUNT>  (1) 
1

>  <PUBCHEM_CONFORMER_ID>  (1) 
0000BCC40000001C

>  <PUBCHEM_MMFF94_ENERGY>  (1) 
133.2137

>  <PUBCHEM_FEATURE_SELFOVERLAP>  (1) 
35.521

>  <PUBCHEM_SHAPE_FINGERPRINT>  (1) 
10074138 170 17544735177759577904
10090160 65 18265891539296674772
10169797 241 18188790412751229538
10366900 7 18199741621603961737
11405975 8 18268712706135337777
11421498 54 18131356336157427336
11552529 35 16844718880738491663
11578080 2 17677884626786176132
12633257 1 17914340074243368065
13140716 1 18268435624952323417
13224815 77 18041002838679031745
13533116 47 18409732829372017551
13583140 156 18411417276384557093
13631057 29 17699276987183400399
13911987 19 18046348810210921557
14223421 5 18335140886369593245
14289901 80 18341607118621260369
14787075 74 18268987772841592041
15238133 3 15697454212900497347
16994733 274 15482392071049001552
17349148 13 13262664937872417621
17492 89 18411135797371523399
17809404 112 17240470425750108983
17909252 39 18263104174273073250
17913733 40 18201432632038328850
1813 80 17697312920234614486
18785283 64 18408318892031481120
20028762 73 17981046628261340390
20286276 3 18337678503487768593
20681651 13 17918270965962604259
21065198 57 18267302036885274189
221490 88 18336554815262295106
23559900 14 18266170639230200281
25222932 49 17984977361462906855
312423 11 18342747273598229461
3737641 26 18340782519376127091
469060 322 18126553746972072477
5104073 3 18340212890917372473
5486654 36 18121228579913936907
59755656 215 18410576210561780164
6287921 2 18335147509192956486
6371380 46 17756421557063376901
6442390 28 18195250151164694888
9709674 26 18335417942019920795

>  <PUBCHEM_SHAPE_MULTIPOLES>  (1) 
553.64
11.29
4.55
1.66
8.42
1.37
0.12
0.09
0.94
-6
-0.05
1.26
0.56
1.1

>  <PUBCHEM_SHAPE_SELFOVERLAP>  (1) 
1152.16

>  <PUBCHEM_SHAPE_VOLUME>  (1) 
315.2

>  <PUBCHEM_COORDINATE_TYPE>  (1) 
2
5
10

$$$$
