48320
     RDKit          3D

 23 23  0  0  0  0  0  0  0  0999 V2000
   -1.5410   -0.8180   -0.6915 O   0  0  0  0  0  0  0  0  0  0  0  0
   -2.5912   -1.8753    1.0785 O   0  0  0  0  0  0  0  0  0  0  0  0
    1.0739    1.2962    0.3220 N   0  0  0  0  0  0  0  0  0  0  0  0
   -1.9218    2.3585    1.0714 N   0  0  0  0  0  0  0  0  0  0  0  0
   -1.2921   -3.1436   -0.3753 N   0  0  0  0  0  0  0  0  0  0  0  0
    1.2591    0.3847   -0.8826 C   0  0  0  0  0  0  0  0  0  0  0  0
    2.3476    1.3018    1.1549 C   0  0  0  0  0  0  0  0  0  0  0  0
   -0.0840    0.7882    1.1690 C   0  0  0  0  0  0  0  0  0  0  0  0
    0.7726    2.7103   -0.1533 C   0  0  0  0  0  0  0  0  0  0  0  0
    2.4384    0.8804   -1.7062 C   0  0  0  0  0  0  0  0  0  0  0  0
    2.6594   -0.1198    1.5985 C   0  0  0  0  0  0  0  0  0  0  0  0
   -1.4263    1.1818    0.6266 C   0  0  0  0  0  0  0  0  0  0  0  0
    2.6354    0.0213   -2.9544 C   0  0  0  0  0  0  0  0  0  0  0  0
    3.9081   -0.1584    2.4785 C   0  0  0  0  0  0  0  0  0  0  0  0
   -2.0795    0.3558   -0.2738 C   0  0  0  0  0  0  0  0  0  0  0  0
    3.7891    0.5291   -3.8044 C   0  0  0  0  0  0  0  0  0  0  0  0
    4.2090   -1.5695    2.9579 C   0  0  0  0  0  0  0  0  0  0  0  0
   -3.3213    0.7636   -0.7485 C   0  0  0  0  0  0  0  0  0  0  0  0
   -3.1310    2.7219    0.5881 C   0  0  0  0  0  0  0  0  0  0  0  0
   -3.8640    1.9679   -0.3142 C   0  0  0  0  0  0  0  0  0  0  0  0
   -1.8661   -1.9542    0.0874 C   0  0  0  0  0  0  0  0  0  0  0  0
   -1.5379   -4.3957    0.3257 C   0  0  0  0  0  0  0  0  0  0  0  0
   -0.4362   -3.2271   -1.5543 C   0  0  0  0  0  0  0  0  0  0  0  0
  1 15  1  0
  1 21  1  0
  2 21  2  0
  3  6  1  0
  3  7  1  0
  3  8  1  0
  3  9  1  0
  4 12  2  0
  4 19  1  0
  5 21  1  0
  5 22  1  0
  5 23  1  0
  6 10  1  0
  7 11  1  0
  8 12  1  0
 10 13  1  0
 11 14  1  0
 12 15  1  0
 13 16  1  0
 14 17  1  0
 15 18  2  0
 18 20  1  0
 19 20  2  0
M  CHG  1   3   1
M  END
>  <PUBCHEM_COMPOUND_CID>  (1) 
48320

>  <PUBCHEM_CONFORMER_RMSD>  (1) 
1

>  <PUBCHEM_CONFORMER_DIVERSEORDER>  (1) 
1
6
72
81
16
83
64
60
77
41
86
21
65
4
71
45
76
85
66
38
28
80
10
84
58
68
69
61
57
18
56
59
7
50
53
63
49
37
40
62
17
43
73
35
54
75
79
31
39
70
74
22
67
44
9
24
15
87
34
55
8
36
78
48
47
29
27
3
88
26
32
2
52
51
11
13
82
14
12
5
25
19
30
23
33
46
20
42

>  <PUBCHEM_MMFF94_PARTIAL_CHARGES>  (1) 
20
1 -0.23
12 0.17
15 0.08
18 -0.15
19 0.16
2 -0.57
20 -0.15
21 0.78
22 0.3
23 0.3
3 -1.01
4 -0.62
47 0.15
48 0.15
49 0.15
5 -0.66
6 0.5
7 0.5
8 0.65
9 0.5

>  <PUBCHEM_EFFECTIVE_ROTOR_COUNT>  (1) 
11

>  <PUBCHEM_PHARMACOPHORE_FEATURES>  (1) 
6
1 16 hydrophobe
1 17 hydrophobe
1 2 acceptor
1 3 cation
1 4 acceptor
6 4 12 15 18 19 20 rings

>  <PUBCHEM_HEAVY_ATOM_COUNT>  (1) 
23

>  <PUBCHEM_ATOM_DEF_STEREO_COUNT>  (1) 
0

>  <PUBCHEM_ATOM_UDEF_STEREO_COUNT>  (1) 
0

>  <PUBCHEM_BOND_DEF_STEREO_COUNT>  (1) 
0

>  <PUBCHEM_BOND_UDEF_STEREO_COUNT>  (1) 
0

>  <PUBCHEM_ISOTOPIC_ATOM_COUNT>  (1) 
0

>  <PUBCHEM_COMPONENT_COUNT>  (1) 
1

>  <PUBCHEM_CACTVS_TAUTO_COUNT>  (1) 
1

>  <PUBCHEM_CONFORMER_ID>  (1) 
0000BCC000000001

>  <PUBCHEM_MMFF94_ENERGY>  (1) 
68.0534

>  <PUBCHEM_FEATURE_SELFOVERLAP>  (1) 
30.446

>  <PUBCHEM_SHAPE_FINGERPRINT>  (1) 
10906281 52 17845644984189860793
12293681 25 17703792586606095463
12549972 3 16988020326560495522
12553582 1 17474658928970133603
12716301 132 18342187669092041894
12788726 201 18044107958337367395
14022347 108 18050584129001010199
14840074 17 17750792135139119202
15463212 79 17824567342032145180
16752209 62 18410017671386966391
1813 80 17097207217588638970
20600515 1 18270946965255542376
20603629 256 15267351721065401452
23175994 123 15648457715271219832
23419403 2 16844750689017910782
23559900 14 17203329945166467892
23598288 3 18260544571528000451
23598291 2 17603585226953733396
23728640 28 18198033998304763539
25222932 49 16824448498732672862
58807428 26 18127680540031451793
59554788 281 18271233920578231009
81228 2 18056485182442935211
9981440 41 16127788851843603816

>  <PUBCHEM_SHAPE_MULTIPOLES>  (1) 
446.65
6.8
4.11
3.05
2.52
5.02
1.97
-1.77
-1.35
-3.76
-0.1
6.49
0.1
-1.75

>  <PUBCHEM_SHAPE_SELFOVERLAP>  (1) 
882.106

>  <PUBCHEM_SHAPE_VOLUME>  (1) 
267

>  <PUBCHEM_COORDINATE_TYPE>  (1) 
2
5
10

$$$$
