48326
     RDKit          3D

 25 25  0  0  1  0  0  0  0  0999 V2000
   -4.5622   -2.7218   -1.2087 Br  0  0  0  0  0  0  0  0  0  0  0  0
    0.1430   -0.7656   -0.3707 O   0  0  0  0  0  0  0  0  0  0  0  0
   -0.4547   -0.8978    1.8493 O   0  0  0  0  0  0  0  0  0  0  0  0
    4.2272    0.1306    0.2995 N   0  0  0  0  0  0  0  0  0  0  0  0
    3.9256   -0.7007   -0.8912 C   0  0  0  0  0  0  0  0  0  0  0  0
    2.4226   -0.6869   -1.2525 C   0  0  0  0  0  0  0  0  0  0  0  0
    3.4504    1.4540    0.2526 C   0  0  0  0  0  0  0  0  0  0  0  0
    5.7250    0.4597    0.3702 C   0  0  0  0  0  0  0  0  0  0  0  0
    3.8393   -0.6037    1.5907 C   0  0  0  0  0  0  0  0  0  0  0  0
    1.5166   -0.7686   -0.0037 C   0  0  0  0  0  0  0  0  0  0  0  0
    2.1558   -1.9127   -2.1517 C   0  0  0  0  0  0  0  0  0  0  0  0
    2.0566    0.5816   -2.0456 C   0  0  0  0  0  0  0  0  0  0  0  0
    3.8150    2.2889    1.4606 C   0  0  0  0  0  0  0  0  0  0  0  0
    6.5121   -0.8260    0.4989 C   0  0  0  0  0  0  0  0  0  0  0  0
   -0.7548   -0.8351    0.6641 C   0  0  0  0  0  0  0  0  0  0  0  0
   -2.1786   -0.8012    0.1145 C   0  0  0  0  0  0  0  0  0  0  0  0
   -3.1160   -1.6366    1.0195 C   0  0  0  0  0  0  0  0  0  0  0  0
   -2.6603    0.6271   -0.0973 C   0  0  0  0  0  0  0  0  0  0  0  0
   -3.3151    1.3024    0.9327 C   0  0  0  0  0  0  0  0  0  0  0  0
   -2.4464    1.2611   -1.3214 C   0  0  0  0  0  0  0  0  0  0  0  0
   -4.4967   -1.8600    0.4523 C   0  0  0  0  0  0  0  0  0  0  0  0
   -3.7563    2.6113    0.7388 C   0  0  0  0  0  0  0  0  0  0  0  0
   -2.8876    2.5701   -1.5152 C   0  0  0  0  0  0  0  0  0  0  0  0
   -3.5425    3.2452   -0.4851 C   0  0  0  0  0  0  0  0  0  0  0  0
   -5.6181   -1.5153    1.0997 C   0  0  0  0  0  0  0  0  0  0  0  0
  1 21  1  0
  2 10  1  0
  2 15  1  0
  3 15  2  0
  4  5  1  0
  4  7  1  0
  4  8  1  0
  4  9  1  0
  5  6  1  0
  6 10  1  0
  6 11  1  0
  6 12  1  0
  7 13  1  0
  8 14  1  0
 15 16  1  0
 16 17  1  0
 16 18  1  0
 17 21  1  0
 18 19  2  0
 18 20  1  0
 19 22  1  0
 20 23  2  0
 21 25  2  0
 22 24  2  0
 23 24  1  0
M  CHG  1   4   1
M  END
>  <PUBCHEM_COMPOUND_CID>  (1) 
48326

>  <PUBCHEM_CONFORMER_RMSD>  (1) 
1

>  <PUBCHEM_CONFORMER_DIVERSEORDER>  (1) 
4
203
180
148
279
252
282
157
109
198
286
51
218
54
212
221
262
130
168
36
280
137
268
89
246
90
84
191
233
234
186
243
283
88
225
244
264
167
204
49
267
58
162
236
37
152
231
196
242
281
106
43
102
99
206
227
64
274
181
133
177
250
245
265
193
208
146
114
172
112
237
175
247
87
261
38
118
161
97
182
21
18
113
44
76
141
134
119
151
284
78
126
140
184
20
253
154
50
223
108
3
199
259
150
219
263
147
173
240
159
145
107
139
39
209
10
131
207
187
96
156
135
72
276
202
254
272
271
185
188
144
260
270
165
81
14
65
255
200
59
68
70
13
75
74
105
123
34
248
285
60
192
117
129
277
217
169
80
19
27
179
91
32
226
104
101
224
232
61
249
142
197
178
183
79
258
111
190
251
98
121
12
205
95
153
170
189
57
41
230
257
40
269
174
266
110
220
164
63
124
128
215
115
53
195
158
5
73
222
86
55
45
67
100
163
155
82
166
35
94
216
228
6
120
213
235
176
194
83
136
28
239
201
229
16
23
30
56
125
241
33
9
1
11
132
138
7
143
17
149
8
46
26
22
15
25
210
47
92
66
48
62
160
2
103
275
93
42
31
211
278
171
238
71
273
77
116
29
256
122
127
69
85
52
24
214

>  <PUBCHEM_MMFF94_PARTIAL_CHARGES>  (1) 
27
1 -0.11
10 0.28
15 0.66
16 0.2
17 0.14
18 -0.14
19 -0.15
2 -0.43
20 -0.15
21 -0.03
22 -0.15
23 -0.15
24 -0.15
25 -0.3
3 -0.57
4 -1.01
5 0.5
52 0.15
53 0.15
54 0.15
55 0.15
56 0.15
57 0.15
58 0.15
7 0.5
8 0.5
9 0.5

>  <PUBCHEM_EFFECTIVE_ROTOR_COUNT>  (1) 
11

>  <PUBCHEM_PHARMACOPHORE_FEATURES>  (1) 
5
1 1 hydrophobe
1 3 acceptor
1 4 cation
3 6 11 12 hydrophobe
6 18 19 20 22 23 24 rings

>  <PUBCHEM_HEAVY_ATOM_COUNT>  (1) 
25

>  <PUBCHEM_ATOM_DEF_STEREO_COUNT>  (1) 
0

>  <PUBCHEM_ATOM_UDEF_STEREO_COUNT>  (1) 
1

>  <PUBCHEM_BOND_DEF_STEREO_COUNT>  (1) 
0

>  <PUBCHEM_BOND_UDEF_STEREO_COUNT>  (1) 
0

>  <PUBCHEM_ISOTOPIC_ATOM_COUNT>  (1) 
0

>  <PUBCHEM_COMPONENT_COUNT>  (1) 
1

>  <PUBCHEM_CACTVS_TAUTO_COUNT>  (1) 
1

>  <PUBCHEM_CONFORMER_ID>  (1) 
0000BCC600000004

>  <PUBCHEM_MMFF94_ENERGY>  (1) 
110.4162

>  <PUBCHEM_FEATURE_SELFOVERLAP>  (1) 
25.371

>  <PUBCHEM_SHAPE_FINGERPRINT>  (1) 
10319926 262 18336253571067923858
10369192 42 17202206424602773320
10646746 165 18409167693048192260
11101153 10 18190184674951596852
11545043 162 18409729547911430418
11595378 159 18187080667832001603
12107183 9 17609480641236014010
12107698 1 18337668719689412024
12166972 35 16443348736160027847
12403259 415 18059858376726945208
12403260 363 18261113014728463390
12596602 18 15647353938920429084
12616971 3 14548736235767267978
12633257 1 18041002804219489460
12788726 201 18042988604028800759
13583140 156 18342165644710972222
14178342 30 18114186289436798279
14251757 17 18200316515566209713
14251764 38 18411134762126493868
14910302 57 18130244682847132903
15961568 22 18191308393089146396
17349148 13 17168144576407463155
17980427 23 17967822656138054166
1813 80 18265909132405891807
192875 21 17676770980236002839
20645477 56 18341058423785321459
21033648 29 18201990024335736840
21033650 10 18044402468544634694
2132832 1 17822575005340150573
21709351 56 17989201547639066292
21792934 111 18335145319630008705
23402539 116 18334574698364472991
23557571 272 18411987957210292227
23559900 14 18057327180637988838
312423 11 17458644331383547431
3633792 109 16515676796894022175
4325135 7 17632016458976223903
469060 322 17895773854362618825
5104073 3 18339366240767192314
5924683 9 18334856121584811215
5969126 39 18341885338624638783
6913067 236 18129654330891521399
7399639 24 18272373130435853423

>  <PUBCHEM_SHAPE_MULTIPOLES>  (1) 
503.71
13.48
3.15
1.81
9.44
1.74
-0.45
-2.1
3.01
-4.86
-0.6
0.29
-0.19
1.4

>  <PUBCHEM_SHAPE_SELFOVERLAP>  (1) 
995.437

>  <PUBCHEM_SHAPE_VOLUME>  (1) 
307.4

>  <PUBCHEM_COORDINATE_TYPE>  (1) 
2
5
10

$$$$
