48334
     RDKit          3D

 28 29  0  0  0  0  0  0  0  0999 V2000
   -1.8679   -2.3203   -0.5701 O   0  0  0  0  0  0  0  0  0  0  0  0
    3.8027    0.5315   -0.6644 O   0  0  0  0  0  0  0  0  0  0  0  0
   -0.1172   -3.6232   -1.3425 O   0  0  0  0  0  0  0  0  0  0  0  0
    2.4184    2.2847   -0.0570 O   0  0  0  0  0  0  0  0  0  0  0  0
   -2.8564    2.3799    0.9006 N   0  0  0  0  0  0  0  0  0  0  0  0
    1.3270   -1.4281    2.2762 N   0  0  0  0  0  0  0  0  0  0  0  0
    0.8643   -0.6316   -0.4012 C   0  0  0  0  0  0  0  0  0  0  0  0
   -0.2113    0.3489   -0.7726 C   0  0  0  0  0  0  0  0  0  0  0  0
   -2.0144    1.8063   -0.1255 C   0  0  0  0  0  0  0  0  0  0  0  0
    0.2384   -1.8816    0.2252 C   0  0  0  0  0  0  0  0  0  0  0  0
    1.8947    0.0442    0.5121 C   0  0  0  0  0  0  0  0  0  0  0  0
   -1.0165    0.8949    0.2198 C   0  0  0  0  0  0  0  0  0  0  0  0
   -2.5559    1.8919    2.3529 C   0  0  0  0  0  0  0  0  0  0  0  0
   -4.3573    2.0462    0.6662 C   0  0  0  0  0  0  0  0  0  0  0  0
   -2.7179    3.9280    0.9602 C   0  0  0  0  0  0  0  0  0  0  0  0
    0.4674   -2.2060    1.5176 C   0  0  0  0  0  0  0  0  0  0  0  0
    2.0682   -0.3615    1.7908 C   0  0  0  0  0  0  0  0  0  0  0  0
   -0.3892    0.7006   -2.1052 C   0  0  0  0  0  0  0  0  0  0  0  0
   -2.1998    2.1647   -1.4607 C   0  0  0  0  0  0  0  0  0  0  0  0
   -1.3872    1.6119   -2.4506 C   0  0  0  0  0  0  0  0  0  0  0  0
   -0.5783   -2.7252   -0.6624 C   0  0  0  0  0  0  0  0  0  0  0  0
    2.7159    1.1049   -0.0939 C   0  0  0  0  0  0  0  0  0  0  0  0
   -0.1372   -3.3770    2.2437 C   0  0  0  0  0  0  0  0  0  0  0  0
    3.0176    0.2542    2.7828 C   0  0  0  0  0  0  0  0  0  0  0  0
   -2.7931   -3.0514   -1.3814 C   0  0  0  0  0  0  0  0  0  0  0  0
    4.7060    1.4418   -1.3001 C   0  0  0  0  0  0  0  0  0  0  0  0
   -4.1831   -2.4888   -1.1735 C   0  0  0  0  0  0  0  0  0  0  0  0
    5.8620    0.6602   -1.8869 C   0  0  0  0  0  0  0  0  0  0  0  0
  1 21  1  0
  1 25  1  0
  2 22  1  0
  2 26  1  0
  3 21  2  0
  4 22  2  0
  5  9  1  0
  5 13  1  0
  5 14  1  0
  5 15  1  0
  6 16  1  0
  6 17  1  0
  7  8  1  0
  7 10  1  0
  7 11  1  0
  8 12  1  0
  8 18  2  0
  9 12  2  0
  9 19  1  0
 10 16  2  0
 10 21  1  0
 11 17  2  0
 11 22  1  0
 16 23  1  0
 17 24  1  0
 18 20  1  0
 19 20  2  0
 25 27  1  0
 26 28  1  0
M  CHG  1   5   1
M  END
>  <PUBCHEM_COMPOUND_CID>  (1) 
48334

>  <PUBCHEM_CONFORMER_RMSD>  (1) 
1

>  <PUBCHEM_CONFORMER_DIVERSEORDER>  (1) 
5
7
12
11
6
14
17
4
8
18
9
13
15
10
3
1
16
2

>  <PUBCHEM_MMFF94_PARTIAL_CHARGES>  (1) 
31
1 -0.43
10 -0.12
11 -0.12
12 -0.15
13 0.5
14 0.5
15 0.5
16 -0.04
17 -0.04
18 -0.15
19 -0.15
2 -0.43
20 -0.15
21 0.71
22 0.71
23 0.14
24 0.14
25 0.28
26 0.28
3 -0.57
30 0.15
4 -0.57
40 0.15
41 0.15
42 0.4
43 0.15
5 -0.87
6 -0.6
7 0.42
8 -0.14
9 0.36

>  <PUBCHEM_EFFECTIVE_ROTOR_COUNT>  (1) 
8.4

>  <PUBCHEM_PHARMACOPHORE_FEATURES>  (1) 
7
1 3 acceptor
1 4 acceptor
1 5 cation
1 6 cation
1 6 donor
6 6 7 10 11 16 17 rings
6 8 9 12 18 19 20 rings

>  <PUBCHEM_HEAVY_ATOM_COUNT>  (1) 
28

>  <PUBCHEM_ATOM_DEF_STEREO_COUNT>  (1) 
0

>  <PUBCHEM_ATOM_UDEF_STEREO_COUNT>  (1) 
0

>  <PUBCHEM_BOND_DEF_STEREO_COUNT>  (1) 
0

>  <PUBCHEM_BOND_UDEF_STEREO_COUNT>  (1) 
0

>  <PUBCHEM_ISOTOPIC_ATOM_COUNT>  (1) 
0

>  <PUBCHEM_COMPONENT_COUNT>  (1) 
1

>  <PUBCHEM_CACTVS_TAUTO_COUNT>  (1) 
2

>  <PUBCHEM_CONFORMER_ID>  (1) 
0000BCCE00000005

>  <PUBCHEM_MMFF94_ENERGY>  (1) 
85.6274

>  <PUBCHEM_FEATURE_SELFOVERLAP>  (1) 
35.52

>  <PUBCHEM_SHAPE_FINGERPRINT>  (1) 
10165383 225 18057345931953390033
11115154 58 17765715007483357647
11578080 2 16689429308328247916
12035759 4 17750785730888875566
12160290 23 18263628731755895498
12633257 1 17388540402052673129
12788726 201 18193267718440165224
12954195 1 18342746238489928214
13583140 156 13479395203242885512
14251757 17 15194996090662423528
14713325 29 17917164861196162316
20600515 1 17031042258330202492
20642791 239 17098891956548067934
229495 10 17605261900550415604
23419403 2 16836350355314295774
23559900 14 16084482198366069661
244849 19 16988554732688827018
25147074 1 18187353338516177938
35225 105 18343586239672531209
3729539 64 17613748941513291414
394222 165 15866001755999107410
469060 322 17168697673584510789
59755656 520 18339370681947940780
6669772 16 18116446851743760430
81228 2 18045780349777191348

>  <PUBCHEM_SHAPE_MULTIPOLES>  (1) 
542.79
7.31
4.59
2.65
6.44
2.28
-0.84
-4.7
2.37
-4.75
-0.21
0.66
0.16
-2.74

>  <PUBCHEM_SHAPE_SELFOVERLAP>  (1) 
1125.952

>  <PUBCHEM_SHAPE_VOLUME>  (1) 
313.3

>  <PUBCHEM_COORDINATE_TYPE>  (1) 
2
5
10

$$$$
