48330
     RDKit          3D

 30 32  0  0  0  0  0  0  0  0999 V2000
   -0.4938    1.3732   -0.7208 O   0  0  0  0  0  0  0  0  0  0  0  0
    1.6158   -0.1579   -1.8710 O   0  0  0  0  0  0  0  0  0  0  0  0
   -5.0317   -0.2744   -0.0646 N   0  0  0  0  0  0  0  0  0  0  0  0
   -4.1234    0.9356    0.1003 C   0  0  0  0  0  0  0  0  0  0  0  0
   -6.2353   -0.1342    0.8561 C   0  0  0  0  0  0  0  0  0  0  0  0
   -5.5048   -0.3607   -1.5085 C   0  0  0  0  0  0  0  0  0  0  0  0
   -4.2632   -1.5382    0.2937 C   0  0  0  0  0  0  0  0  0  0  0  0
   -2.7262    0.5779   -0.3766 C   0  0  0  0  0  0  0  0  0  0  0  0
   -6.9950    1.1235    0.4951 C   0  0  0  0  0  0  0  0  0  0  0  0
   -6.4071   -1.5651   -1.6661 C   0  0  0  0  0  0  0  0  0  0  0  0
   -1.7841    1.7690   -0.2767 C   0  0  0  0  0  0  0  0  0  0  0  0
    1.9841   -0.0331   -0.4574 C   0  0  0  0  0  0  0  0  0  0  0  0
    1.8063    1.3833   -0.0201 C   0  0  0  0  0  0  0  0  0  0  0  0
    0.5777    2.0268   -0.1692 C   0  0  0  0  0  0  0  0  0  0  0  0
    1.0511   -1.0727    0.2490 C   0  0  0  0  0  0  0  0  0  0  0  0
    3.4648   -0.5412   -0.4305 C   0  0  0  0  0  0  0  0  0  0  0  0
    2.8861    2.0638    0.5430 C   0  0  0  0  0  0  0  0  0  0  0  0
    0.4288    3.3505    0.2448 C   0  0  0  0  0  0  0  0  0  0  0  0
    2.7370    3.3876    0.9568 C   0  0  0  0  0  0  0  0  0  0  0  0
    0.8090   -0.9743    1.6193 C   0  0  0  0  0  0  0  0  0  0  0  0
    3.9062   -1.3486    0.6180 C   0  0  0  0  0  0  0  0  0  0  0  0
    0.4615   -2.0973   -0.4915 C   0  0  0  0  0  0  0  0  0  0  0  0
    4.3427   -0.1870   -1.4551 C   0  0  0  0  0  0  0  0  0  0  0  0
    1.5085    4.0309    0.8077 C   0  0  0  0  0  0  0  0  0  0  0  0
   -0.0226   -1.9004    2.2490 C   0  0  0  0  0  0  0  0  0  0  0  0
    5.2252   -1.8015    0.6420 C   0  0  0  0  0  0  0  0  0  0  0  0
   -0.3701   -3.0233    0.1382 C   0  0  0  0  0  0  0  0  0  0  0  0
    5.6617   -0.6400   -1.4310 C   0  0  0  0  0  0  0  0  0  0  0  0
   -0.6121   -2.9248    1.5084 C   0  0  0  0  0  0  0  0  0  0  0  0
    6.1030   -1.4473   -0.3823 C   0  0  0  0  0  0  0  0  0  0  0  0
  1 11  1  0
  1 14  1  0
  2 12  1  0
  3  4  1  0
  3  5  1  0
  3  6  1  0
  3  7  1  0
  4  8  1  0
  5  9  1  0
  6 10  1  0
  8 11  1  0
 12 13  1  0
 12 15  1  0
 12 16  1  0
 13 14  2  0
 13 17  1  0
 14 18  1  0
 15 20  2  0
 15 22  1  0
 16 21  2  0
 16 23  1  0
 17 19  2  0
 18 24  2  0
 19 24  1  0
 20 25  1  0
 21 26  1  0
 22 27  2  0
 23 28  2  0
 25 29  2  0
 26 30  2  0
 27 29  1  0
 28 30  1  0
M  CHG  1   3   1
M  END
>  <PUBCHEM_COMPOUND_CID>  (1) 
48330

>  <PUBCHEM_CONFORMER_RMSD>  (1) 
1

>  <PUBCHEM_CONFORMER_DIVERSEORDER>  (1) 
6
70
54
18
128
13
161
150
104
60
99
146
134
129
91
110
85
84
11
117
72
30
159
160
155
23
95
163
80
41
102
89
20
107
48
175
97
173
158
66
170
142
79
28
136
125
27
73
176
120
42
67
35
131
17
47
77
52
58
43
63
81
26
109
56
166
8
98
37
14
75
69
105
141
135
115
82
51
167
171
19
96
121
25
38
7
138
139
36
22
157
154
112
122
126
9
90
46
74
39
50
114
10
1
24
103
172
88
31
130
83
152
164
33
71
94
16
165
101
153
123
49
64
145
29
57
168
100
53
119
174
68
144
143
44
45
87
147
61
127
133
169
140
15
59
2
93
21
156
4
32
76
5
111
151
148
12
62
118
124
3
65
149
34
137
108
132
116
162
92
78
40
86
113
106
55

>  <PUBCHEM_MMFF94_PARTIAL_CHARGES>  (1) 
42
1 -0.36
11 0.28
12 0.71
13 -0.14
14 0.08
15 -0.14
16 -0.14
17 -0.15
18 -0.15
19 -0.15
2 -0.68
20 -0.15
21 -0.15
22 -0.15
23 -0.15
24 -0.15
25 -0.15
26 -0.15
27 -0.15
28 -0.15
29 -0.15
3 -1.01
30 -0.15
4 0.5
5 0.5
50 0.15
51 0.15
52 0.4
53 0.15
54 0.15
55 0.15
56 0.15
57 0.15
58 0.15
59 0.15
6 0.5
60 0.15
61 0.15
62 0.15
63 0.15
64 0.15
7 0.5

>  <PUBCHEM_EFFECTIVE_ROTOR_COUNT>  (1) 
10

>  <PUBCHEM_PHARMACOPHORE_FEATURES>  (1) 
7
1 1 acceptor
1 2 acceptor
1 2 donor
1 3 cation
6 13 14 17 18 19 24 rings
6 15 20 22 25 27 29 rings
6 16 21 23 26 28 30 rings

>  <PUBCHEM_HEAVY_ATOM_COUNT>  (1) 
30

>  <PUBCHEM_ATOM_DEF_STEREO_COUNT>  (1) 
0

>  <PUBCHEM_ATOM_UDEF_STEREO_COUNT>  (1) 
0

>  <PUBCHEM_BOND_DEF_STEREO_COUNT>  (1) 
0

>  <PUBCHEM_BOND_UDEF_STEREO_COUNT>  (1) 
0

>  <PUBCHEM_ISOTOPIC_ATOM_COUNT>  (1) 
0

>  <PUBCHEM_COMPONENT_COUNT>  (1) 
1

>  <PUBCHEM_CACTVS_TAUTO_COUNT>  (1) 
1

>  <PUBCHEM_CONFORMER_ID>  (1) 
0000BCCA00000006

>  <PUBCHEM_MMFF94_ENERGY>  (1) 
119.5279

>  <PUBCHEM_FEATURE_SELFOVERLAP>  (1) 
35.524

>  <PUBCHEM_SHAPE_FINGERPRINT>  (1) 
10032420 55 17895741912342671885
10076449 9 18271251539299015542
10930396 42 18263622066916335880
1100329 8 18411135861410729219
11578080 2 17972329666333707492
11607047 403 15762695101265814155
12035758 1 18412535527466140848
12058002 1 17130177305928804182
12107183 9 18129953269817291401
12107698 1 18273214188449280845
12788726 201 18337681789670499986
13402501 40 18260835895043828027
14068700 675 18202563956241381473
14347329 18 16733251375255843045
14787075 74 18261396594508141766
15131766 46 14275745155750467126
15439362 3 18263648540014345965
15927050 60 17982732171439982444
16112460 7 18342752831249390641
16114785 44 16616437395631892016
17492 54 18041005028911808246
17980427 23 17345497979790133562
18681886 176 18272359884994154363
20028762 73 18131627893907218223
20775438 99 18053361477866096382
20832881 197 18410014325349025401
21197605 99 17834957856032912211
21521721 280 18187939377702261264
22393880 68 18262223483361078719
23559900 14 18339079405591966849
24771293 8 18130494315094280480
283562 15 18192718834921791952
3178227 256 18334591126513575817
3383291 50 18262234405553648834
4093350 32 17489873756469681304
469060 322 18126015871127598040
484989 97 18041860500666981730
508706 21 17460037495085871635
5104073 3 18130794516413121361
6669772 16 18263351654989272096

>  <PUBCHEM_SHAPE_MULTIPOLES>  (1) 
600.67
14.22
3.93
1.53
17.81
2.89
-0.04
-4.46
4.08
-2.24
-1.52
0.08
-0.72
0.03

>  <PUBCHEM_SHAPE_SELFOVERLAP>  (1) 
1270.02

>  <PUBCHEM_SHAPE_VOLUME>  (1) 
336.9

>  <PUBCHEM_COORDINATE_TYPE>  (1) 
2
5
10

$$$$
