48336
     RDKit          3D

 30 32  0  0  1  0  0  0  0  0999 V2000
   -5.3463    0.9545   -0.0503 O   0  0  0  0  0  0  0  0  0  0  0  0
    4.8116   -1.8590    0.5853 O   0  0  0  0  0  0  0  0  0  0  0  0
   -2.2137   -2.7260    1.8481 O   0  0  0  0  0  0  0  0  0  0  0  0
   -1.0103   -1.6851   -2.6695 O   0  0  0  0  0  0  0  0  0  0  0  0
   -0.8399   -3.3620   -0.4718 O   0  0  0  0  0  0  0  0  0  0  0  0
   -1.2253    2.3518    0.2590 N   0  0  0  0  0  0  0  0  0  0  0  0
    1.5429    1.6476    0.2398 N   0  0  0  0  0  0  0  0  0  0  0  0
   -0.2780    3.0878   -0.5875 C   0  0  0  0  0  0  0  0  0  0  0  0
   -0.5598    1.9197    1.4939 C   0  0  0  0  0  0  0  0  0  0  0  0
    0.9182    2.2106   -0.9639 C   0  0  0  0  0  0  0  0  0  0  0  0
    0.6281    1.0040    1.1875 C   0  0  0  0  0  0  0  0  0  0  0  0
   -2.3896    3.1815    0.5668 C   0  0  0  0  0  0  0  0  0  0  0  0
   -3.5891    2.2992    0.9147 C   0  0  0  0  0  0  0  0  0  0  0  0
   -3.9823    1.3442   -0.2239 C   0  0  0  0  0  0  0  0  0  0  0  0
    2.8690    1.2100    0.1489 C   0  0  0  0  0  0  0  0  0  0  0  0
   -3.1438    0.0889   -0.2899 C   0  0  0  0  0  0  0  0  0  0  0  0
    3.1836   -0.1224    0.4167 C   0  0  0  0  0  0  0  0  0  0  0  0
    3.8758    2.1057   -0.2112 C   0  0  0  0  0  0  0  0  0  0  0  0
   -2.4534   -0.2281   -1.4597 C   0  0  0  0  0  0  0  0  0  0  0  0
   -3.0604   -0.7531    0.8190 C   0  0  0  0  0  0  0  0  0  0  0  0
    4.5051   -0.5590    0.3242 C   0  0  0  0  0  0  0  0  0  0  0  0
    5.1973    1.6690   -0.3035 C   0  0  0  0  0  0  0  0  0  0  0  0
    5.5120    0.3367   -0.0357 C   0  0  0  0  0  0  0  0  0  0  0  0
   -2.2865   -1.9121    0.7580 C   0  0  0  0  0  0  0  0  0  0  0  0
   -1.6795   -1.3869   -1.5207 C   0  0  0  0  0  0  0  0  0  0  0  0
   -1.5961   -2.2290   -0.4119 C   0  0  0  0  0  0  0  0  0  0  0  0
    6.1824   -2.2384    0.4719 C   0  0  0  0  0  0  0  0  0  0  0  0
   -2.9497   -2.3292    3.0034 C   0  0  0  0  0  0  0  0  0  0  0  0
   -1.1491   -0.7718   -3.7560 C   0  0  0  0  0  0  0  0  0  0  0  0
    0.5267   -3.2491   -0.0817 C   0  0  0  0  0  0  0  0  0  0  0  0
  1 14  1  0
  2 21  1  0
  2 27  1  0
  3 24  1  0
  3 28  1  0
  4 25  1  0
  4 29  1  0
  5 26  1  0
  5 30  1  0
  6  8  1  0
  6  9  1  0
  6 12  1  0
  7 10  1  0
  7 11  1  0
  7 15  1  0
  8 10  1  0
  9 11  1  0
 12 13  1  0
 13 14  1  0
 14 16  1  0
 15 17  2  0
 15 18  1  0
 16 19  2  0
 16 20  1  0
 17 21  1  0
 18 22  2  0
 19 25  1  0
 20 24  2  0
 21 23  2  0
 22 23  1  0
 24 26  1  0
 25 26  2  0
M  END
>  <PUBCHEM_COMPOUND_CID>  (1) 
48336

>  <PUBCHEM_CONFORMER_RMSD>  (1) 
1

>  <PUBCHEM_CONFORMER_DIVERSEORDER>  (1) 
2
134
64
144
59
150
73
4
107
79
151
47
30
135
102
89
116
49
12
90
122
121
98
1
43
97
112
118
149
66
137
28
119
123
58
80
31
48
130
39
45
133
3
114
69
146
99
115
95
142
15
34
54
138
75
94
143
139
11
111
131
63
62
20
55
56
53
44
77
128
51
24
101
40
129
57
19
61
22
18
113
65
136
91
23
83
147
78
100
106
88
85
74
81
87
42
105
68
5
110
125
27
7
17
67
60
72
25
36
92
141
120
124
148
50
46
52
127
8
86
108
37
9
104
109
132
140
33
13
35
93
76
71
32
82
117
70
96
126
84
26
103
10
29
21
6
16
14
38
41
145

>  <PUBCHEM_MMFF94_PARTIAL_CHARGES>  (1) 
36
1 -0.68
10 0.37
11 0.37
12 0.27
14 0.42
15 0.1
16 -0.14
17 -0.15
18 -0.15
19 -0.15
2 -0.36
20 -0.15
21 0.08
22 -0.15
23 -0.15
24 0.08
25 0.08
26 0.08
27 0.28
28 0.28
29 0.28
3 -0.36
30 0.28
4 -0.36
44 0.15
45 0.15
46 0.15
47 0.15
48 0.4
49 0.15
5 -0.36
50 0.15
6 -0.81
7 -0.84
8 0.27
9 0.27

>  <PUBCHEM_EFFECTIVE_ROTOR_COUNT>  (1) 
10.2

>  <PUBCHEM_PHARMACOPHORE_FEATURES>  (1) 
11
1 1 acceptor
1 1 donor
1 2 acceptor
1 3 acceptor
1 4 acceptor
1 5 acceptor
1 6 cation
1 7 cation
6 15 17 18 21 22 23 rings
6 16 19 20 24 25 26 rings
6 6 7 8 9 10 11 rings

>  <PUBCHEM_HEAVY_ATOM_COUNT>  (1) 
30

>  <PUBCHEM_ATOM_DEF_STEREO_COUNT>  (1) 
0

>  <PUBCHEM_ATOM_UDEF_STEREO_COUNT>  (1) 
1

>  <PUBCHEM_BOND_DEF_STEREO_COUNT>  (1) 
0

>  <PUBCHEM_BOND_UDEF_STEREO_COUNT>  (1) 
0

>  <PUBCHEM_ISOTOPIC_ATOM_COUNT>  (1) 
0

>  <PUBCHEM_COMPONENT_COUNT>  (1) 
1

>  <PUBCHEM_CACTVS_TAUTO_COUNT>  (1) 
1

>  <PUBCHEM_CONFORMER_ID>  (1) 
0000BCD000000002

>  <PUBCHEM_MMFF94_ENERGY>  (1) 
126.2638

>  <PUBCHEM_FEATURE_SELFOVERLAP>  (1) 
55.834

>  <PUBCHEM_SHAPE_FINGERPRINT>  (1) 
107951 10 17967810540293911035
11014199 57 17547571939007547006
11399939 17 15804153380987225115
12156800 1 17757601517612148097
12422481 6 17985577505188980915
12539773 59 17199962368414584511
12553582 1 18197211671308013808
12596599 1 16516524567692951935
12633257 1 16773245092476935048
12788726 201 17988649566768920840
14279260 333 17971746680775315978
15274700 242 17897428507925673202
20905425 154 17984141462121536237
21315759 227 17751634588430829426
23559900 14 18341044229119849592
23728640 28 18059852904711913085
2818148 4 17401219261589950219
3383291 50 18342450422575925883
338550 245 18339364042328953302
3411729 13 17769668495030851921
4112364 45 15191113659702721931
6138700 20 18339919317075803997
70251023 43 17689988355843566515

>  <PUBCHEM_SHAPE_MULTIPOLES>  (1) 
578.08
10.43
4.26
2.16
15.39
0.7
1.32
0.5
-2.11
-1.14
-0.8
-2.39
1.54
-0.26

>  <PUBCHEM_SHAPE_SELFOVERLAP>  (1) 
1212.048

>  <PUBCHEM_SHAPE_VOLUME>  (1) 
328.4

>  <PUBCHEM_COORDINATE_TYPE>  (1) 
2
5
10

$$$$
