48338
     RDKit          3D

 14 14  0  0  1  0  0  0  0  0999 V2000
    4.3485    2.2964   -0.1951 Cl  0  0  0  0  0  0  0  0  0  0  0  0
    1.0449    0.0172    0.1455 N   0  0  0  0  0  0  0  0  0  0  0  0
    0.1197    0.8243   -0.6491 C   0  0  0  0  0  0  0  0  0  0  0  0
    2.4290    0.3801   -0.1571 C   0  0  0  0  0  0  0  0  0  0  0  0
    0.8239   -1.4069   -0.1030 C   0  0  0  0  0  0  0  0  0  0  0  0
   -1.3171    0.5189   -0.3186 C   0  0  0  0  0  0  0  0  0  0  0  0
    2.6710    1.8413    0.1883 C   0  0  0  0  0  0  0  0  0  0  0  0
   -1.9837   -0.4751   -1.0215 C   0  0  0  0  0  0  0  0  0  0  0  0
   -1.9550    1.2358    0.6840 C   0  0  0  0  0  0  0  0  0  0  0  0
    1.7593   -2.2586    0.6989 C   0  0  0  0  0  0  0  0  0  0  0  0
   -3.3149   -0.7578   -0.7158 C   0  0  0  0  0  0  0  0  0  0  0  0
   -3.2862    0.9530    0.9899 C   0  0  0  0  0  0  0  0  0  0  0  0
   -3.9662   -0.0438    0.2900 C   0  0  0  0  0  0  0  0  0  0  0  0
    2.6269   -3.1249    0.1636 C   0  0  0  0  0  0  0  0  0  0  0  0
  1  7  1  0
  2  3  1  0
  2  4  1  0
  2  5  1  0
  3  6  1  0
  4  7  1  0
  5 10  1  0
  6  8  2  0
  6  9  1  0
  8 11  1  0
  9 12  2  0
 10 14  2  0
 11 13  2  0
 12 13  1  0
M  END
>  <PUBCHEM_COMPOUND_CID>  (1) 
48338

>  <PUBCHEM_CONFORMER_RMSD>  (1) 
0.6

>  <PUBCHEM_CONFORMER_DIVERSEORDER>  (1) 
3
45
28
47
35
19
55
31
17
23
29
37
54
43
30
1
41
46
18
56
60
20
52
48
10
57
15
12
44
49
25
40
38
4
62
32
61
33
59
27
9
58
26
50
2
34
36
42
21
39
16
14
51
11
7
13
53
8
6
5
22
24

>  <PUBCHEM_MMFF94_PARTIAL_CHARGES>  (1) 
22
1 -0.29
10 -0.29
11 -0.15
12 -0.15
13 -0.15
14 -0.3
2 -0.81
23 0.15
24 0.15
25 0.15
26 0.15
27 0.15
28 0.15
29 0.15
3 0.41
30 0.15
4 0.27
5 0.41
6 -0.14
7 0.29
8 -0.15
9 -0.15

>  <PUBCHEM_EFFECTIVE_ROTOR_COUNT>  (1) 
6

>  <PUBCHEM_PHARMACOPHORE_FEATURES>  (1) 
3
1 14 hydrophobe
1 2 cation
6 6 8 9 11 12 13 rings

>  <PUBCHEM_HEAVY_ATOM_COUNT>  (1) 
14

>  <PUBCHEM_ATOM_DEF_STEREO_COUNT>  (1) 
0

>  <PUBCHEM_ATOM_UDEF_STEREO_COUNT>  (1) 
0

>  <PUBCHEM_BOND_DEF_STEREO_COUNT>  (1) 
0

>  <PUBCHEM_BOND_UDEF_STEREO_COUNT>  (1) 
0

>  <PUBCHEM_ISOTOPIC_ATOM_COUNT>  (1) 
0

>  <PUBCHEM_COMPONENT_COUNT>  (1) 
1

>  <PUBCHEM_CACTVS_TAUTO_COUNT>  (1) 
1

>  <PUBCHEM_CONFORMER_ID>  (1) 
0000BCD200000003

>  <PUBCHEM_MMFF94_ENERGY>  (1) 
34.9896

>  <PUBCHEM_FEATURE_SELFOVERLAP>  (1) 
15.223

>  <PUBCHEM_SHAPE_FINGERPRINT>  (1) 
12251169 10 18127690422746021875
12346645 44 18342740753516244172
12553582 1 17976535005624991810
12932764 1 18338243656711992165
14787075 74 17767120174409964959
15279307 12 18343017839057562079
15309172 13 18189052165200647260
15375462 189 18201721769178614451
15669948 3 17632569479286575215
15775835 57 18201444704711700089
17841504 4 18192152590116239082
18186145 218 18412265073244032316
19422 9 18272088258393231979
201361 129 18342182154475528624
20279233 1 16660641865046052129
204376 136 18189335847890709860
20645477 70 18262785290574020583
20671657 1 18411704266373672982
21499 59 18263360450934698484
21501502 16 18271804580018930339
21524375 3 18271245049028613140
22445834 79 18341051826678748355
2255824 54 18339081493273340966
23236772 104 18200877378513378881
23557571 272 16588301644690022077
23598291 2 18201438021678913869
3250762 1 17826777162825254468
458136 41 18335711567485362104
474 4 18337113483181178284
474229 33 18046909552292384082
603831 33 18058999696526077725
6049 1 17677331580815816149
633830 44 18271251620265370308
7364860 26 18412262796800328974
7615 1 17988064609386717413
81539 233 18187641436084370102

>  <PUBCHEM_SHAPE_MULTIPOLES>  (1) 
285
7.27
2.8
0.92
0.34
1.89
-0.01
-2.81
0.37
-4.36
0.41
0.51
-0.01
-0.9

>  <PUBCHEM_SHAPE_SELFOVERLAP>  (1) 
560.682

>  <PUBCHEM_SHAPE_VOLUME>  (1) 
170.8

>  <PUBCHEM_COORDINATE_TYPE>  (1) 
2
5
10

$$$$
