48342
     RDKit          3D

 13 13  0  0  1  0  0  0  0  0999 V2000
   -3.2548   -1.6874   -1.0454 Br  0  0  0  0  0  0  0  0  0  0  0  0
   -1.0628    0.7607   -0.5606 N   0  0  0  0  0  0  0  0  0  0  0  0
   -0.3735    0.2625    0.6290 C   0  0  0  0  0  0  0  0  0  0  0  0
    1.0817   -0.0149    0.3594 C   0  0  0  0  0  0  0  0  0  0  0  0
   -2.4839    0.9632   -0.2808 C   0  0  0  0  0  0  0  0  0  0  0  0
   -0.4503    2.0057   -1.0224 C   0  0  0  0  0  0  0  0  0  0  0  0
    1.4681   -1.2739   -0.0784 C   0  0  0  0  0  0  0  0  0  0  0  0
    2.0163    0.9929    0.5526 C   0  0  0  0  0  0  0  0  0  0  0  0
   -3.1642   -0.2887    0.1987 C   0  0  0  0  0  0  0  0  0  0  0  0
    2.8164   -1.5304   -0.3285 C   0  0  0  0  0  0  0  0  0  0  0  0
    3.3645    0.7363    0.3028 C   0  0  0  0  0  0  0  0  0  0  0  0
    3.7647   -0.5253   -0.1381 C   0  0  0  0  0  0  0  0  0  0  0  0
   -3.7223   -0.4007    1.4116 C   0  0  0  0  0  0  0  0  0  0  0  0
  1  9  1  0
  2  3  1  0
  2  5  1  0
  2  6  1  0
  3  4  1  0
  4  7  2  0
  4  8  1  0
  5  9  1  0
  7 10  1  0
  8 11  2  0
  9 13  2  0
 10 12  2  0
 11 12  1  0
M  END
>  <PUBCHEM_COMPOUND_CID>  (1) 
48342

>  <PUBCHEM_CONFORMER_RMSD>  (1) 
0.6

>  <PUBCHEM_CONFORMER_DIVERSEORDER>  (1) 
3
32
8
36
39
7
40
9
19
16
37
11
35
4
38
2
26
28
15
34
31
18
6
21
5
1
22
20
30
23
14
33
13
24
29
27
12
10
17
25

>  <PUBCHEM_MMFF94_PARTIAL_CHARGES>  (1) 
20
1 -0.11
10 -0.15
11 -0.15
12 -0.15
13 -0.3
2 -0.81
21 0.15
22 0.15
23 0.15
24 0.15
25 0.15
26 0.15
27 0.15
3 0.41
4 -0.14
5 0.41
6 0.27
7 -0.15
8 -0.15
9 -0.03

>  <PUBCHEM_EFFECTIVE_ROTOR_COUNT>  (1) 
4

>  <PUBCHEM_PHARMACOPHORE_FEATURES>  (1) 
3
1 1 hydrophobe
1 2 cation
6 4 7 8 10 11 12 rings

>  <PUBCHEM_HEAVY_ATOM_COUNT>  (1) 
13

>  <PUBCHEM_ATOM_DEF_STEREO_COUNT>  (1) 
0

>  <PUBCHEM_ATOM_UDEF_STEREO_COUNT>  (1) 
0

>  <PUBCHEM_BOND_DEF_STEREO_COUNT>  (1) 
0

>  <PUBCHEM_BOND_UDEF_STEREO_COUNT>  (1) 
0

>  <PUBCHEM_ISOTOPIC_ATOM_COUNT>  (1) 
0

>  <PUBCHEM_COMPONENT_COUNT>  (1) 
1

>  <PUBCHEM_CACTVS_TAUTO_COUNT>  (1) 
1

>  <PUBCHEM_CONFORMER_ID>  (1) 
0000BCD600000003

>  <PUBCHEM_MMFF94_ENERGY>  (1) 
34.3942

>  <PUBCHEM_FEATURE_SELFOVERLAP>  (1) 
15.223

>  <PUBCHEM_SHAPE_FINGERPRINT>  (1) 
11132069 177 18341321271130257682
11543360 7 13767934549807249681
11769659 78 18271801328422855623
12032990 46 18187653495909451664
12251169 10 17988931067593977915
12932764 1 18410288077789713546
13296908 3 18260266334993176809
14123255 52 8862130258252325575
14252887 29 18261684734999763657
14289901 80 18343862233854247336
14445660 50 17988649609665287211
15219456 202 18410290281239857144
15375462 189 18272653450029542203
15501101 241 18412825819467682928
17834074 16 18341613676735588982
17844478 74 18408605829352316172
18175812 5 18410852135881679125
18186145 218 17917993880083702432
190213 19 16845853485873649010
19422 9 17703509981915672775
20279233 1 18333726905899892939
20281407 28 18412542098222693099
20281475 54 18272932708771388406
20645477 70 18271235007057426335
20871999 31 18040704845548037261
22213442 358 18334294301081253149
22485316 2 18343016692454008187
23402539 116 17676482818306298884
23402655 69 18411699850872817196
23557571 272 17894905179298229284
276578 36 13973973081813800684
2871803 45 18338221752468797719
449060 23 18335135410343929807
581208 293 18339918311699840504
81228 2 17823689781450897445
83771 10 18410858758937338811

>  <PUBCHEM_SHAPE_MULTIPOLES>  (1) 
268.5
7.19
1.78
1.07
0.57
0.1
0.06
2.27
0.7
0.12
-0.63
0.92
-0.06
-0.01

>  <PUBCHEM_SHAPE_SELFOVERLAP>  (1) 
528.336

>  <PUBCHEM_SHAPE_VOLUME>  (1) 
164.7

>  <PUBCHEM_COORDINATE_TYPE>  (1) 
2
5
10

$$$$
