4834
     RDKit          3D

 36 39  0  0  1  0  0  0  0  0999 V2000
    4.2918    2.6201   -0.4988 S   0  0  0  0  0  0  0  0  0  0  0  0
    4.3812   -1.6973   -1.2388 O   0  0  0  0  0  0  0  0  0  0  0  0
    6.0228    1.7347    2.1751 O   0  0  0  0  0  0  0  0  0  0  0  0
    7.6101    0.1309    1.7968 O   0  0  0  0  0  0  0  0  0  0  0  0
    0.1060   -0.0040   -1.6742 O   0  0  0  0  0  0  0  0  0  0  0  0
   -2.6546   -0.6015    2.3226 O   0  0  0  0  0  0  0  0  0  0  0  0
   -3.6095    0.9278   -1.4944 O   0  0  0  0  0  0  0  0  0  0  0  0
   -5.4770    2.7613   -1.5920 O   0  0  0  0  0  0  0  0  0  0  0  0
    4.6792    0.1312    0.2211 N   0  0  0  0  0  0  0  0  0  0  0  0
    1.6106   -0.4179    0.0404 N   0  0  0  0  0  0  0  0  0  0  0  0
   -1.9288   -0.3663    0.1525 N   0  0  0  0  0  0  0  0  0  0  0  0
   -3.9931    0.5930    0.8122 N   0  0  0  0  0  0  0  0  0  0  0  0
   -6.4833    1.8546    0.3082 N   0  0  0  0  0  0  0  0  0  0  0  0
    3.6046    1.1194    0.2961 C   0  0  0  0  0  0  0  0  0  0  0  0
    5.9751    1.8730   -0.7732 C   0  0  0  0  0  0  0  0  0  0  0  0
    6.0445    0.6029    0.1104 C   0  0  0  0  0  0  0  0  0  0  0  0
    2.7811    0.1914   -0.6129 C   0  0  0  0  0  0  0  0  0  0  0  0
    4.0306   -0.7113   -0.6316 C   0  0  0  0  0  0  0  0  0  0  0  0
    7.0407    2.9244   -0.4427 C   0  0  0  0  0  0  0  0  0  0  0  0
    6.0812    1.5134   -2.2653 C   0  0  0  0  0  0  0  0  0  0  0  0
    6.6144    0.8484    1.4985 C   0  0  0  0  0  0  0  0  0  0  0  0
    0.3581   -0.4605   -0.5607 C   0  0  0  0  0  0  0  0  0  0  0  0
   -0.6956   -1.0959    0.3373 C   0  0  0  0  0  0  0  0  0  0  0  0
   -0.8599   -2.5709    0.0547 C   0  0  0  0  0  0  0  0  0  0  0  0
   -2.8420   -0.1665    1.1826 C   0  0  0  0  0  0  0  0  0  0  0  0
   -1.7860   -3.0000   -0.8962 C   0  0  0  0  0  0  0  0  0  0  0  0
   -0.0852   -3.5038    0.7442 C   0  0  0  0  0  0  0  0  0  0  0  0
   -4.9030    0.9573    1.8963 C   0  0  0  0  0  0  0  0  0  0  0  0
   -6.3361    0.9282    1.4130 C   0  0  0  0  0  0  0  0  0  0  0  0
   -4.2603    1.1146   -0.4714 C   0  0  0  0  0  0  0  0  0  0  0  0
   -5.4749    2.0004   -0.6309 C   0  0  0  0  0  0  0  0  0  0  0  0
   -1.9377   -4.3618   -1.1572 C   0  0  0  0  0  0  0  0  0  0  0  0
   -0.2369   -4.8656    0.4829 C   0  0  0  0  0  0  0  0  0  0  0  0
   -7.7495    2.5550    0.1725 C   0  0  0  0  0  0  0  0  0  0  0  0
   -1.1631   -5.2945   -0.4678 C   0  0  0  0  0  0  0  0  0  0  0  0
   -8.7557    1.7358   -0.6093 C   0  0  0  0  0  0  0  0  0  0  0  0
  1 14  1  0
  1 15  1  0
  2 18  2  0
  3 21  1  0
  4 21  2  0
  5 22  2  0
  6 25  2  0
  7 30  2  0
  8 31  2  0
  9 14  1  0
  9 16  1  0
  9 18  1  0
 10 17  1  0
 10 22  1  0
 11 23  1  0
 11 25  1  0
 12 25  1  0
 12 28  1  0
 12 30  1  0
 13 29  1  0
 13 31  1  0
 13 34  1  0
 14 17  1  0
 15 16  1  0
 15 19  1  0
 15 20  1  0
 16 21  1  0
 17 18  1  0
 22 23  1  0
 23 24  1  0
 24 26  2  0
 24 27  1  0
 26 32  1  0
 27 33  2  0
 28 29  1  0
 30 31  1  0
 32 35  2  0
 33 35  1  0
 34 36  1  0
M  CHG  1   3  -1
M  END
>  <PUBCHEM_COMPOUND_CID>  (1) 
4834

>  <PUBCHEM_CONFORMER_RMSD>  (1) 
1.6

>  <PUBCHEM_CONFORMER_DIVERSEORDER>  (1) 
1
78
54
28
90
67
93
50
4
83
86
13
2
11
10
49
40
33
3
52
59
44
74
25
81
65
27
41
53
94
68
58
48
20
34
71
76
14
56
26
38
79
84
29
24
30
16
73
55
8
88
7
77
47
80
75
57
19
61
35
64
87
9
22
5
51
39
12
37
18
72
82
23
21
62
46
92
42
31
17
70
43
85
66
32
89
60
91
6
63
15
45
69
36

>  <PUBCHEM_MMFF94_PARTIAL_CHARGES>  (1) 
40
1 -0.45
10 -0.65
11 -0.73
12 -0.42
13 -0.66
14 0.44
15 0.23
16 0.19
17 0.28
18 0.58
2 -0.57
21 0.91
22 0.57
23 0.5
24 -0.14
25 0.69
26 -0.15
27 -0.15
28 0.3
29 0.3
3 -0.9
30 0.63
31 0.63
32 -0.15
33 -0.15
34 0.3
35 -0.15
4 -0.9
46 0.37
48 0.37
49 0.15
5 -0.57
50 0.15
55 0.15
56 0.15
59 0.15
6 -0.57
7 -0.57
8 -0.57
9 -0.59

>  <PUBCHEM_EFFECTIVE_ROTOR_COUNT>  (1) 
10.6

>  <PUBCHEM_PHARMACOPHORE_FEATURES>  (1) 
15
1 10 donor
1 11 donor
1 2 acceptor
1 3 acceptor
1 4 acceptor
1 5 acceptor
1 6 acceptor
1 7 acceptor
1 8 acceptor
3 15 19 20 hydrophobe
3 3 4 21 anion
4 9 14 17 18 rings
6 12 13 28 29 30 31 rings
6 24 26 27 32 33 35 rings
7 1 9 14 15 16 17 18 rings

>  <PUBCHEM_HEAVY_ATOM_COUNT>  (1) 
36

>  <PUBCHEM_ATOM_DEF_STEREO_COUNT>  (1) 
0

>  <PUBCHEM_ATOM_UDEF_STEREO_COUNT>  (1) 
4

>  <PUBCHEM_BOND_DEF_STEREO_COUNT>  (1) 
0

>  <PUBCHEM_BOND_UDEF_STEREO_COUNT>  (1) 
0

>  <PUBCHEM_ISOTOPIC_ATOM_COUNT>  (1) 
0

>  <PUBCHEM_COMPONENT_COUNT>  (1) 
1

>  <PUBCHEM_CACTVS_TAUTO_COUNT>  (1) 
4

>  <PUBCHEM_CONFORMER_ID>  (1) 
000012E200000001

>  <PUBCHEM_MMFF94_ENERGY>  (1) 
91.4432

>  <PUBCHEM_FEATURE_SELFOVERLAP>  (1) 
80.162

>  <PUBCHEM_SHAPE_FINGERPRINT>  (1) 
10 15 17749394766864837365
10190206 1 18269259310007921975
10369192 42 18335145280769905853
11007060 377 18271525398755612119
11297750 10 17483391203310960043
11443803 9 18335408081107559451
11823591 26 18412542094302480267
11991303 11 18340211898500527191
12107183 9 18334848399877418970
12166972 35 12535627172130826346
12988421 55 18341059536250650593
13673619 4 12107786315574084502
13911987 19 18343026571464611753
14294032 229 18337402650829327515
15183329 4 15626222390786761313
15392192 104 14707510077998675177
16120349 189 18335426780925414183
17913733 40 18337964381212250275
18393751 57 18334581231061964693
19301679 30 8286211564838328937
19304144 158 18115020794021572997
20554085 129 18130774638444905610
21033648 29 18409727378452266728
23522609 53 17750528454333196660
24180151 214 17775007848070164675
255183 313 18260541234158816527
3627633 1 17762341718420150015
4403749 210 18336831991641380819
504843 32 18409452522621896523
5104073 3 18190735535420821440
513202 73 11025787708941945131
5219985 13 18335423452304888151
6009941 240 18130784616624124704
6669772 16 18200880578153894959

>  <PUBCHEM_SHAPE_MULTIPOLES>  (1) 
678.72
22.13
5.3
1.73
1.83
9.27
0.38
-28.89
2.02
4.1
-1.28
-0.79
-0.46
0.01

>  <PUBCHEM_SHAPE_SELFOVERLAP>  (1) 
1431.542

>  <PUBCHEM_SHAPE_VOLUME>  (1) 
382.3

>  <PUBCHEM_COORDINATE_TYPE>  (1) 
2
5
10

$$$$
