48354
     RDKit          3D

 14 14  0  0  1  0  0  0  0  0999 V2000
    4.7393    1.3769   -0.1089 Cl  0  0  0  0  0  0  0  0  0  0  0  0
    1.1477   -0.4326   -0.3321 N   0  0  0  0  0  0  0  0  0  0  0  0
    0.3747    0.5323    0.4491 C   0  0  0  0  0  0  0  0  0  0  0  0
    2.5787   -0.2630   -0.0826 C   0  0  0  0  0  0  0  0  0  0  0  0
    0.7318   -1.7980   -0.0138 C   0  0  0  0  0  0  0  0  0  0  0  0
   -1.1091    0.4171    0.1615 C   0  0  0  0  0  0  0  0  0  0  0  0
    0.6792    0.3545    1.9383 C   0  0  0  0  0  0  0  0  0  0  0  0
    2.9946    1.1670   -0.3915 C   0  0  0  0  0  0  0  0  0  0  0  0
    1.4818   -2.8121   -0.8609 C   0  0  0  0  0  0  0  0  0  0  0  0
   -1.6459    1.1231   -0.8996 C   0  0  0  0  0  0  0  0  0  0  0  0
   -1.8901   -0.3915    0.9669 C   0  0  0  0  0  0  0  0  0  0  0  0
   -3.0112    1.0171   -1.1644 C   0  0  0  0  0  0  0  0  0  0  0  0
   -3.2555   -0.4976    0.7019 C   0  0  0  0  0  0  0  0  0  0  0  0
   -3.8160    0.2067   -0.3638 C   0  0  0  0  0  0  0  0  0  0  0  0
  1  8  1  0
  2  3  1  0
  2  4  1  0
  2  5  1  0
  3  6  1  0
  3  7  1  0
  4  8  1  0
  5  9  1  0
  6 10  2  0
  6 11  1  0
 10 12  1  0
 11 13  2  0
 12 14  2  0
 13 14  1  0
M  END
>  <PUBCHEM_COMPOUND_CID>  (1) 
48354

>  <PUBCHEM_CONFORMER_RMSD>  (1) 
0.6

>  <PUBCHEM_CONFORMER_DIVERSEORDER>  (1) 
4
20
36
1
12
13
32
25
33
16
3
18
17
24
5
35
38
34
10
26
15
30
6
19
23
2
29
9
27
11
7
28
37
22
21
8
14
31

>  <PUBCHEM_MMFF94_PARTIAL_CHARGES>  (1) 
17
1 -0.29
10 -0.15
11 -0.15
12 -0.15
13 -0.15
14 -0.15
2 -0.81
28 0.15
29 0.15
3 0.41
30 0.15
31 0.15
32 0.15
4 0.27
5 0.27
6 -0.14
8 0.29

>  <PUBCHEM_EFFECTIVE_ROTOR_COUNT>  (1) 
5

>  <PUBCHEM_PHARMACOPHORE_FEATURES>  (1) 
2
1 2 cation
6 6 10 11 12 13 14 rings

>  <PUBCHEM_HEAVY_ATOM_COUNT>  (1) 
14

>  <PUBCHEM_ATOM_DEF_STEREO_COUNT>  (1) 
0

>  <PUBCHEM_ATOM_UDEF_STEREO_COUNT>  (1) 
1

>  <PUBCHEM_BOND_DEF_STEREO_COUNT>  (1) 
0

>  <PUBCHEM_BOND_UDEF_STEREO_COUNT>  (1) 
0

>  <PUBCHEM_ISOTOPIC_ATOM_COUNT>  (1) 
0

>  <PUBCHEM_COMPONENT_COUNT>  (1) 
1

>  <PUBCHEM_CACTVS_TAUTO_COUNT>  (1) 
1

>  <PUBCHEM_CONFORMER_ID>  (1) 
0000BCE200000004

>  <PUBCHEM_MMFF94_ENERGY>  (1) 
40.2233

>  <PUBCHEM_FEATURE_SELFOVERLAP>  (1) 
10.148

>  <PUBCHEM_SHAPE_FINGERPRINT>  (1) 
10608611 8 18187360974398486941
107287 299 18413107247152072583
10871710 139 16314733625626285044
10922049 32 18260550052232985858
11031198 65 18342735195902253885
12119455 92 18334007324546789868
12592029 89 18334012783640328946
12932764 1 17203034210860833265
13296909 8 15068607301620508750
14993402 34 15913610566558560513
15219456 202 18261395507517490439
15279308 16 18113618967206630429
15502722 9 18340209587844993238
15775835 57 18201998845644674783
16945 1 17988636389455269755
17357990 137 13913184322319601631
18186145 218 18060421360913868248
187816 3 17703798054563666776
19422 9 16916799439259266262
20201158 50 18336547118870817627
20344682 1 18261394493979003245
20361792 2 16772656724985904037
204376 136 18341051925610630844
20645477 70 18270676442582092911
20671657 53 17907865002812291062
21499 59 18342175600560864492
21501502 16 18127693721254479649
21524375 3 18334577996851318344
22802520 49 18045788888235213111
228727 97 17418384566766612208
23114952 82 18192716639649860342
23382010 3 17916576691305580616
23402539 116 17458901656102121595
23557571 272 17749969803093028303
23559900 14 18044081368305575314
265663 24 17676199208688787192
58051976 378 18409729573190643447
633830 44 17845954973527847492
8030462 33 17774716464023172097
81539 233 18334013887257006614
9925002 15 17542515276056005182

>  <PUBCHEM_SHAPE_MULTIPOLES>  (1) 
285
6.84
1.92
1.24
2.46
1.61
-0.4
-3.11
1.1
1.48
0.7
-0.35
-0.08
0.7

>  <PUBCHEM_SHAPE_SELFOVERLAP>  (1) 
563.309

>  <PUBCHEM_SHAPE_VOLUME>  (1) 
171.7

>  <PUBCHEM_COORDINATE_TYPE>  (1) 
2
5
10

$$$$
