48364
     RDKit          3D

 28 29  0  0  1  0  0  0  0  0999 V2000
   -4.8380   -1.5438    0.9562 O   0  0  0  0  0  0  0  0  0  0  0  0
   -4.5676   -2.3239   -1.3078 O   0  0  0  0  0  0  0  0  0  0  0  0
   -0.8641    2.3818    0.6164 N   0  0  0  0  0  0  0  0  0  0  0  0
   -2.2245    2.5579    0.1061 C   0  0  0  0  0  0  0  0  0  0  0  0
   -0.0055    1.7916   -0.4051 C   0  0  0  0  0  0  0  0  0  0  0  0
   -0.3204    3.6636    1.0677 C   0  0  0  0  0  0  0  0  0  0  0  0
    3.9140    1.8355    0.1144 C   0  0  0  0  0  0  0  0  0  0  0  0
    2.5305    2.0880   -0.4407 C   0  0  0  0  0  0  0  0  0  0  0  0
   -2.8417    1.2489   -0.3090 C   0  0  0  0  0  0  0  0  0  0  0  0
    1.3952    1.6025    0.0989 C   0  0  0  0  0  0  0  0  0  0  0  0
    4.7901    1.0583   -0.8713 C   0  0  0  0  0  0  0  0  0  0  0  0
    4.2694   -1.4366   -0.6447 C   0  0  0  0  0  0  0  0  0  0  0  0
    4.1457   -0.2433   -1.2580 C   0  0  0  0  0  0  0  0  0  0  0  0
   -3.5602    0.5095    0.6239 C   0  0  0  0  0  0  0  0  0  0  0  0
    3.6255   -2.7211   -1.1234 C   0  0  0  0  0  0  0  0  0  0  0  0
   -1.1692    4.2596    2.1780 C   0  0  0  0  0  0  0  0  0  0  0  0
   -2.6784    0.8052   -1.6262 C   0  0  0  0  0  0  0  0  0  0  0  0
   -4.1070   -0.6830    0.1967 C   0  0  0  0  0  0  0  0  0  0  0  0
    2.4832    2.9255   -1.6913 C   0  0  0  0  0  0  0  0  0  0  0  0
   -3.9525   -1.1286   -1.0961 C   0  0  0  0  0  0  0  0  0  0  0  0
    2.7529   -3.4102   -0.0660 C   0  0  0  0  0  0  0  0  0  0  0  0
   -3.2426   -0.4062   -2.0330 C   0  0  0  0  0  0  0  0  0  0  0  0
    5.1372   -1.5689    0.5802 C   0  0  0  0  0  0  0  0  0  0  0  0
   -5.1270   -2.5807   -0.0037 C   0  0  0  0  0  0  0  0  0  0  0  0
    1.5423   -2.5987    0.3032 C   0  0  0  0  0  0  0  0  0  0  0  0
    1.1475   -2.2030    1.5280 C   0  0  0  0  0  0  0  0  0  0  0  0
    1.8749   -2.4885    2.8107 C   0  0  0  0  0  0  0  0  0  0  0  0
   -0.1098   -1.3915    1.6958 C   0  0  0  0  0  0  0  0  0  0  0  0
  1 18  1  0
  1 24  1  0
  2 20  1  0
  2 24  1  0
  3  4  1  0
  3  5  1  0
  3  6  1  0
  4  9  1  0
  5 10  1  0
  6 16  1  0
  7  8  1  0
  7 11  1  0
  8 10  2  0
  8 19  1  0
  9 14  1  0
  9 17  2  0
 11 13  1  0
 12 13  2  0
 12 15  1  0
 12 23  1  0
 14 18  2  0
 15 21  1  0
 17 22  1  0
 18 20  1  0
 20 22  2  0
 21 25  1  0
 25 26  2  3
 26 27  1  0
 26 28  1  0
M  END
>  <PUBCHEM_COMPOUND_CID>  (1) 
48364

>  <PUBCHEM_CONFORMER_RMSD>  (1) 
1.4

>  <PUBCHEM_CONFORMER_DIVERSEORDER>  (1) 
2
70
212
166
158
97
185
218
37
30
12
160
219
34
132
59
142
88
56
191
128
24
143
126
187
226
60
210
100
234
203
10
79
76
188
192
235
213
178
215
237
55
105
163
130
135
242
91
153
103
176
27
141
49
169
85
41
127
216
68
220
144
134
84
125
1
40
101
47
198
18
201
136
228
11
164
150
214
46
118
71
77
106
114
78
240
159
65
75
225
93
102
232
189
155
186
43
38
152
173
62
15
120
87
115
238
206
119
233
80
53
82
147
168
44
23
69
157
33
83
86
167
148
217
51
133
94
180
99
124
131
139
89
171
64
20
149
113
35
73
227
96
190
200
151
205
123
66
179
221
129
52
116
174
39
172
58
17
145
107
32
45
197
207
209
196
165
137
95
239
92
204
54
14
13
104
26
67
108
121
161
63
21
175
182
183
42
8
184
199
7
181
146
6
156
57
16
117
112
36
28
31
50
230
222
211
25
194
29
170
3
109
22
243
122
81
138
154
4
19
111
9
110
241
98
231
90
193
244
72
229
177
140
61
5
48
162
236
224
223
195
208
74
202

>  <PUBCHEM_MMFF94_PARTIAL_CHARGES>  (1) 
33
1 -0.36
10 -0.29
11 0.14
12 -0.28
13 -0.29
14 -0.15
15 0.14
17 -0.15
18 0.08
19 0.14
2 -0.36
20 0.08
21 0.14
22 -0.15
23 0.14
24 0.56
25 -0.29
26 -0.28
27 0.14
28 0.14
3 -0.81
37 0.15
4 0.41
40 0.15
41 0.15
47 0.15
5 0.41
53 0.15
59 0.15
6 0.27
7 0.14
8 -0.28
9 -0.14

>  <PUBCHEM_EFFECTIVE_ROTOR_COUNT>  (1) 
11.6

>  <PUBCHEM_PHARMACOPHORE_FEATURES>  (1) 
10
1 1 acceptor
1 19 hydrophobe
1 2 acceptor
1 23 hydrophobe
1 3 cation
3 26 27 28 hydrophobe
4 12 15 21 25 hydrophobe
4 7 8 11 13 hydrophobe
5 1 2 18 20 24 rings
6 9 14 17 18 20 22 rings

>  <PUBCHEM_HEAVY_ATOM_COUNT>  (1) 
28

>  <PUBCHEM_ATOM_DEF_STEREO_COUNT>  (1) 
0

>  <PUBCHEM_ATOM_UDEF_STEREO_COUNT>  (1) 
0

>  <PUBCHEM_BOND_DEF_STEREO_COUNT>  (1) 
0

>  <PUBCHEM_BOND_UDEF_STEREO_COUNT>  (1) 
2

>  <PUBCHEM_ISOTOPIC_ATOM_COUNT>  (1) 
0

>  <PUBCHEM_COMPONENT_COUNT>  (1) 
1

>  <PUBCHEM_CACTVS_TAUTO_COUNT>  (1) 
1

>  <PUBCHEM_CONFORMER_ID>  (1) 
0000BCEC00000002

>  <PUBCHEM_MMFF94_ENERGY>  (1) 
51.6765

>  <PUBCHEM_FEATURE_SELFOVERLAP>  (1) 
50.947

>  <PUBCHEM_SHAPE_FINGERPRINT>  (1) 
10928967 22 18059857319537308831
11186622 123 18336263448901905746
13383661 66 16538191771965443783
14117953 113 16894817749377978077
14251757 17 18187368744052289122
15001296 14 18410573955102666941
17909252 39 18272091595598807794
19319366 153 17980481483885937236
20429585 67 18336273430770171699
20764821 26 18119541078726274838
21315759 227 18336540538959724278
22393880 68 18041271067649417926
23558518 356 18267040391841550272
23598288 3 18129943373764319845
25265897 201 17338744577028796679
3737641 26 18412834594212241807
4283 87 18263926531992845702
444735 86 18336817693131107423
463206 1 18269558414923107063
469060 322 15504670293725041971
6422251 121 18339361971890991827
66674814 147 18040721355407636272
6669772 16 17767111378111734120
86090 222 17971476457942598547

>  <PUBCHEM_SHAPE_MULTIPOLES>  (1) 
559.51
10.84
5.22
1.98
1.78
2.13
-0.68
-6.99
3.36
-0.7
-1.9
0.1
-0.13
-1.84

>  <PUBCHEM_SHAPE_SELFOVERLAP>  (1) 
1135.442

>  <PUBCHEM_SHAPE_VOLUME>  (1) 
327.8

>  <PUBCHEM_COORDINATE_TYPE>  (1) 
2
5
10

$$$$
