48362
     RDKit          3D

 14 14  0  0  1  0  0  0  0  0999 V2000
   -4.5253   -2.1455    0.1243 Cl  0  0  0  0  0  0  0  0  0  0  0  0
   -1.1250    0.0000   -0.1168 N   0  0  0  0  0  0  0  0  0  0  0  0
   -0.8377    1.3957    0.2121 C   0  0  0  0  0  0  0  0  0  0  0  0
   -0.2356   -0.8934    0.6246 C   0  0  0  0  0  0  0  0  0  0  0  0
   -2.5234   -0.3158    0.1721 C   0  0  0  0  0  0  0  0  0  0  0  0
   -1.7440    2.3264   -0.5897 C   0  0  0  0  0  0  0  0  0  0  0  0
    1.2127   -0.6357    0.3043 C   0  0  0  0  0  0  0  0  0  0  0  0
   -2.8197   -1.7587   -0.2062 C   0  0  0  0  0  0  0  0  0  0  0  0
   -1.4501    3.7865   -0.2816 C   0  0  0  0  0  0  0  0  0  0  0  0
    1.8141   -1.3222   -0.7413 C   0  0  0  0  0  0  0  0  0  0  0  0
    1.9264    0.2846    1.0593 C   0  0  0  0  0  0  0  0  0  0  0  0
    3.1561   -1.0838   -1.0379 C   0  0  0  0  0  0  0  0  0  0  0  0
    3.2683    0.5231    0.7627 C   0  0  0  0  0  0  0  0  0  0  0  0
    3.8832   -0.1612   -0.2859 C   0  0  0  0  0  0  0  0  0  0  0  0
  1  8  1  0
  2  3  1  0
  2  4  1  0
  2  5  1  0
  3  6  1  0
  4  7  1  0
  5  8  1  0
  6  9  1  0
  7 10  2  0
  7 11  1  0
 10 12  1  0
 11 13  2  0
 12 14  2  0
 13 14  1  0
M  END
>  <PUBCHEM_COMPOUND_CID>  (1) 
48362

>  <PUBCHEM_CONFORMER_RMSD>  (1) 
0.6

>  <PUBCHEM_CONFORMER_DIVERSEORDER>  (1) 
1
41
20
22
28
14
24
26
44
33
16
35
6
25
27
46
19
21
18
30
23
38
43
34
8
7
17
10
12
45
11
32
36
3
29
42
2
39
37
40
4
31
9
5
15
13

>  <PUBCHEM_MMFF94_PARTIAL_CHARGES>  (1) 
17
1 -0.29
10 -0.15
11 -0.15
12 -0.15
13 -0.15
14 -0.15
2 -0.81
28 0.15
29 0.15
3 0.27
30 0.15
31 0.15
32 0.15
4 0.41
5 0.27
7 -0.14
8 0.29

>  <PUBCHEM_EFFECTIVE_ROTOR_COUNT>  (1) 
6

>  <PUBCHEM_PHARMACOPHORE_FEATURES>  (1) 
3
1 2 cation
1 9 hydrophobe
6 7 10 11 12 13 14 rings

>  <PUBCHEM_HEAVY_ATOM_COUNT>  (1) 
14

>  <PUBCHEM_ATOM_DEF_STEREO_COUNT>  (1) 
0

>  <PUBCHEM_ATOM_UDEF_STEREO_COUNT>  (1) 
0

>  <PUBCHEM_BOND_DEF_STEREO_COUNT>  (1) 
0

>  <PUBCHEM_BOND_UDEF_STEREO_COUNT>  (1) 
0

>  <PUBCHEM_ISOTOPIC_ATOM_COUNT>  (1) 
0

>  <PUBCHEM_COMPONENT_COUNT>  (1) 
1

>  <PUBCHEM_CACTVS_TAUTO_COUNT>  (1) 
1

>  <PUBCHEM_CONFORMER_ID>  (1) 
0000BCEA00000001

>  <PUBCHEM_MMFF94_ENERGY>  (1) 
31.3306

>  <PUBCHEM_FEATURE_SELFOVERLAP>  (1) 
15.223

>  <PUBCHEM_SHAPE_FINGERPRINT>  (1) 
10608611 8 18342171116699728160
12173636 292 17977379443682528261
12932764 1 18266750094964577314
13764800 53 18044665204289441345
14252887 29 18270405021928909547
15501101 241 17845935267938240939
17134986 127 17542785309182199805
17357779 13 18269818935276314901
17844478 74 18272370884062371434
18380122 1 18201426021698511978
20344682 1 18129946805194859998
20645477 70 17760917838483355727
20711985 327 18267028430562748551
20711985 344 18335137544984900211
20871998 22 18341051921215618563
20871999 31 18334008407026404175
21501502 16 18189613831059002458
21524375 3 17466790377116798609
21618674 68 18340207513381024836
22802520 49 18057604265994241740
23402539 116 18334006207602280190
23557571 272 18409446994333497500
2748010 2 18059283267483875128
2871803 45 18412542115334646815
3071541 250 18191594262054062885
458136 41 17259635742499022329
6049 1 18130787820015768144
621550 34 18129935797346368968
6442390 28 17836376947566423049
68521 5 18335136492997617325
7364860 26 17834396001237784809
81228 2 18334020462725225945
88987 49 18191854635566311104

>  <PUBCHEM_SHAPE_MULTIPOLES>  (1) 
285
6.95
3.1
0.94
0.75
3.81
-0.01
-4.35
0.33
3.77
0.64
-0.56
-0.06
0.81

>  <PUBCHEM_SHAPE_SELFOVERLAP>  (1) 
556.164

>  <PUBCHEM_SHAPE_VOLUME>  (1) 
172.8

>  <PUBCHEM_COORDINATE_TYPE>  (1) 
2
5
10

$$$$
