48374
     RDKit          3D

 14 14  0  0  0  0  0  0  0  0999 V2000
   -2.4195    1.4861   -0.7095 O   0  0  0  0  0  0  0  0  0  0  0  0
   -3.5980   -0.8594    0.2051 O   0  0  0  0  0  0  0  0  0  0  0  0
    4.0973    0.7513   -0.2612 O   0  0  0  0  0  0  0  0  0  0  0  0
    2.4311    1.3804    1.2378 O   0  0  0  0  0  0  0  0  0  0  0  0
    2.6626   -1.5093   -0.4710 O   0  0  0  0  0  0  0  0  0  0  0  0
    0.5326   -0.5857   -0.1136 C   0  0  0  0  0  0  0  0  0  0  0  0
   -0.2641    0.5035   -0.4669 C   0  0  0  0  0  0  0  0  0  0  0  0
   -1.6521    0.4157   -0.3615 C   0  0  0  0  0  0  0  0  0  0  0  0
   -0.0590   -1.7627    0.3451 C   0  0  0  0  0  0  0  0  0  0  0  0
    1.9798   -0.4944   -0.2233 C   0  0  0  0  0  0  0  0  0  0  0  0
   -2.2436   -0.7613    0.0972 C   0  0  0  0  0  0  0  0  0  0  0  0
   -1.4471   -1.8505    0.4506 C   0  0  0  0  0  0  0  0  0  0  0  0
    2.7014    0.8579   -0.0466 C   0  0  0  0  0  0  0  0  0  0  0  0
   -2.7213    2.4285    0.3178 C   0  0  0  0  0  0  0  0  0  0  0  0
  1  8  1  0
  1 14  1  0
  2 11  1  0
  3 13  1  0
  4 13  1  0
  5 10  2  0
  6  7  2  0
  6  9  1  0
  6 10  1  0
  7  8  1  0
  8 11  2  0
  9 12  2  0
 10 13  1  0
 11 12  1  0
M  END
>  <PUBCHEM_COMPOUND_CID>  (1) 
48374

>  <PUBCHEM_CONFORMER_RMSD>  (1) 
0.6

>  <PUBCHEM_CONFORMER_DIVERSEORDER>  (1) 
1
15
19
20
18
5
22
12
8
10
23
17
6
21
7
4
9
16
11
13
2
14
3

>  <PUBCHEM_MMFF94_PARTIAL_CHARGES>  (1) 
20
1 -0.36
10 0.42
11 0.08
12 -0.15
13 0.62
14 0.28
15 0.15
16 0.15
17 0.15
2 -0.53
22 0.45
23 0.4
24 0.4
3 -0.68
4 -0.68
5 -0.57
6 0.09
7 -0.15
8 0.08
9 -0.15

>  <PUBCHEM_EFFECTIVE_ROTOR_COUNT>  (1) 
3

>  <PUBCHEM_PHARMACOPHORE_FEATURES>  (1) 
8
1 1 acceptor
1 2 donor
1 3 acceptor
1 3 donor
1 4 acceptor
1 4 donor
1 5 acceptor
6 6 7 8 9 11 12 rings

>  <PUBCHEM_HEAVY_ATOM_COUNT>  (1) 
14

>  <PUBCHEM_ATOM_DEF_STEREO_COUNT>  (1) 
0

>  <PUBCHEM_ATOM_UDEF_STEREO_COUNT>  (1) 
0

>  <PUBCHEM_BOND_DEF_STEREO_COUNT>  (1) 
0

>  <PUBCHEM_BOND_UDEF_STEREO_COUNT>  (1) 
0

>  <PUBCHEM_ISOTOPIC_ATOM_COUNT>  (1) 
0

>  <PUBCHEM_COMPONENT_COUNT>  (1) 
1

>  <PUBCHEM_CACTVS_TAUTO_COUNT>  (1) 
9

>  <PUBCHEM_CONFORMER_ID>  (1) 
0000BCF600000001

>  <PUBCHEM_MMFF94_ENERGY>  (1) 
37.3492

>  <PUBCHEM_FEATURE_SELFOVERLAP>  (1) 
40.694

>  <PUBCHEM_SHAPE_FINGERPRINT>  (1) 
10608611 8 18412543227994498132
12932764 1 17774998016135168758
13380535 21 18337680710826528740
13764800 53 18408045091539252129
13839132 238 18410575058977677918
14325111 11 18408604729872155174
14614273 12 17895181174265623471
15219456 202 18413392012326972246
15775835 57 18261115110524895000
16945 1 18264490757240557895
17844478 74 18337120067413106787
18186145 218 18266460910305149644
19049666 15 18341615888896824154
19973954 147 18411138034732720244
20304884 271 18199185083973591449
20510252 161 18411141342115949273
20653085 51 18269843012483219731
20871998 184 18268437999958760727
21501502 16 18409164377133077134
21524375 3 18194395598506285837
2334 1 18408319969203219551
23402539 116 18337381755639210063
23419403 2 16389256281498657279
23557571 272 18267312100009577215
25 1 18124317112160089876
2748010 2 18335140843409182655
53812653 166 18265051340592957648
6333449 129 18408319982256978517
7364860 26 18122337986930396586
81228 2 18187652461202362283

>  <PUBCHEM_SHAPE_MULTIPOLES>  (1) 
258.77
5.63
2.19
0.78
2.39
0.38
0.09
1.86
0.04
-1.21
0.32
0.13
0.14
0.45

>  <PUBCHEM_SHAPE_SELFOVERLAP>  (1) 
538.331

>  <PUBCHEM_SHAPE_VOLUME>  (1) 
146.7

>  <PUBCHEM_COORDINATE_TYPE>  (1) 
2
5
10

$$$$
