48370
     RDKit          3D

 25 27  0  0  1  0  0  0  0  0999 V2000
    1.0770   -1.6830    0.2939 O   0  0  0  0  0  0  0  0  0  0  0  0
   -3.9855    1.3616   -2.2344 O   0  0  0  0  0  0  0  0  0  0  0  0
   -3.4402   -0.7742   -2.7891 O   0  0  0  0  0  0  0  0  0  0  0  0
    2.1822    1.6026    0.1527 N   0  0  0  0  0  0  0  0  0  0  0  0
    2.4584    0.2326    0.0080 N   0  0  0  0  0  0  0  0  0  0  0  0
   -0.9716    0.1689    1.1247 N   0  0  0  0  0  0  0  0  0  0  0  0
    0.8793    1.7143    0.6379 C   0  0  0  0  0  0  0  0  0  0  0  0
    0.2768    0.5199    0.7325 C   0  0  0  0  0  0  0  0  0  0  0  0
    1.2896   -0.4811    0.2929 C   0  0  0  0  0  0  0  0  0  0  0  0
    3.7714   -0.2940   -0.0752 C   0  0  0  0  0  0  0  0  0  0  0  0
    2.6844    2.5231   -0.8628 C   0  0  0  0  0  0  0  0  0  0  0  0
    0.2855    3.0487    0.9427 C   0  0  0  0  0  0  0  0  0  0  0  0
    3.9765   -1.6149   -0.4862 C   0  0  0  0  0  0  0  0  0  0  0  0
    4.8718    0.5032    0.2549 C   0  0  0  0  0  0  0  0  0  0  0  0
   -1.8648    0.1249    0.1857 C   0  0  0  0  0  0  0  0  0  0  0  0
    5.2691   -2.1332   -0.5668 C   0  0  0  0  0  0  0  0  0  0  0  0
    6.1644   -0.0152    0.1745 C   0  0  0  0  0  0  0  0  0  0  0  0
   -3.2686   -0.2398    0.4529 C   0  0  0  0  0  0  0  0  0  0  0  0
    6.3633   -1.3333   -0.2366 C   0  0  0  0  0  0  0  0  0  0  0  0
   -4.1975   -0.2764   -0.5748 C   0  0  0  0  0  0  0  0  0  0  0  0
   -3.6267   -0.5432    1.7575 C   0  0  0  0  0  0  0  0  0  0  0  0
   -5.5180   -0.6251   -0.2916 C   0  0  0  0  0  0  0  0  0  0  0  0
   -4.9472   -0.8926    2.0411 C   0  0  0  0  0  0  0  0  0  0  0  0
   -5.8928   -0.9332    1.0164 C   0  0  0  0  0  0  0  0  0  0  0  0
   -3.8370    0.0396   -1.9508 C   0  0  0  0  0  0  0  0  0  0  0  0
  1  9  2  0
  2 25  1  0
  3 25  2  0
  4  5  1  0
  4  7  1  0
  4 11  1  0
  5  9  1  0
  5 10  1  0
  6  8  1  0
  6 15  2  0
  7  8  2  0
  7 12  1  0
  8  9  1  0
 10 13  2  0
 10 14  1  0
 13 16  1  0
 14 17  2  0
 15 18  1  0
 16 19  2  0
 17 19  1  0
 18 20  2  0
 18 21  1  0
 20 22  1  0
 20 25  1  0
 21 23  2  0
 22 24  2  0
 23 24  1  0
M  END
>  <PUBCHEM_COMPOUND_CID>  (1) 
48370

>  <PUBCHEM_CONFORMER_RMSD>  (1) 
0.8

>  <PUBCHEM_CONFORMER_DIVERSEORDER>  (1) 
2
17
10
9
11
12
13
4
5
7
18
8
15
3
16
1
14
6

>  <PUBCHEM_MMFF94_PARTIAL_CHARGES>  (1) 
36
1 -0.57
10 0.12
11 0.37
12 0.14
13 -0.15
14 -0.15
15 0.3
16 -0.15
17 -0.15
18 0.09
19 -0.15
2 -0.65
20 0.09
21 -0.15
22 -0.15
23 -0.15
24 -0.15
25 0.63
3 -0.57
32 0.15
33 0.15
34 0.06
35 0.15
36 0.15
37 0.15
38 0.15
39 0.15
4 -0.49
40 0.15
41 0.15
42 0.5
5 -0.16
6 -0.62
7 -0.04
8 0.19
9 0.62

>  <PUBCHEM_EFFECTIVE_ROTOR_COUNT>  (1) 
4

>  <PUBCHEM_PHARMACOPHORE_FEATURES>  (1) 
8
1 1 acceptor
1 2 acceptor
1 3 acceptor
1 6 acceptor
3 2 3 25 anion
5 4 5 7 8 9 rings
6 10 13 14 16 17 19 rings
6 18 20 21 22 23 24 rings

>  <PUBCHEM_HEAVY_ATOM_COUNT>  (1) 
25

>  <PUBCHEM_ATOM_DEF_STEREO_COUNT>  (1) 
0

>  <PUBCHEM_ATOM_UDEF_STEREO_COUNT>  (1) 
0

>  <PUBCHEM_BOND_DEF_STEREO_COUNT>  (1) 
0

>  <PUBCHEM_BOND_UDEF_STEREO_COUNT>  (1) 
0

>  <PUBCHEM_ISOTOPIC_ATOM_COUNT>  (1) 
0

>  <PUBCHEM_COMPONENT_COUNT>  (1) 
1

>  <PUBCHEM_CACTVS_TAUTO_COUNT>  (1) 
1

>  <PUBCHEM_CONFORMER_ID>  (1) 
0000BCF200000002

>  <PUBCHEM_MMFF94_ENERGY>  (1) 
96.3096

>  <PUBCHEM_FEATURE_SELFOVERLAP>  (1) 
40.658

>  <PUBCHEM_SHAPE_FINGERPRINT>  (1) 
10447042 23 18411133611728886142
10670039 82 15140674778415283319
11089746 13 12612755735302626070
11545043 162 17458345255847109221
12166972 35 17895203199037258884
12236239 1 17632863035700451227
12403259 415 17749105625344759245
12422481 6 16701468844577086366
12516196 113 18273216400156634184
12596602 18 15052007966714572474
12616971 3 17917997199787583993
13103583 49 16917063377879434293
13533116 47 18202569501539831440
13673619 4 17749966556514380619
13685833 64 18410581690423273755
13782708 43 17895484738264912811
13862211 1 18412547583423866818
14840074 17 17846781788838884694
15183329 4 14851885829520147714
15788980 27 18343864411497468729
17349148 13 18131356306218885874
17492 89 17981895147081808214
17844677 252 17022910072451218236
17980427 23 16128651989656626249
1813 80 18059872644065432076
19301676 85 16324856163263120150
19489759 90 16298107579357540939
200 152 18272369754543923624
20511986 3 17274815831463927075
20645477 70 18335143124205517952
21033648 29 18114730620923405405
21033650 10 15503791680802544230
21267235 1 18270411503809746018
21315763 178 17704073980041710738
21623969 137 18411707577667143374
220451 1 17203612588410654262
22061861 79 18334012795960630606
221357 26 18261386754775301853
22393880 68 17749102305266331635
2297311 6 16877948261176160387
23198884 109 15068344505541029098
23402539 116 18131071502384006016
23522609 53 17273721899220637688
23536364 44 18187643544523383493
23557571 272 17167580492909333775
23559900 14 17530681048213209609
312425 54 15913044279684959102
314194 84 18202001023636439058
34797466 226 17240777202257731006
351380 3 17989207036027372366
46194498 28 17677056857533196932
5104073 3 18128819638968718882
5281201 14 18040999570024472389
59755656 215 17603585227281190907
6823239 73 16950556727013098701
7495541 125 17676775361065630200

>  <PUBCHEM_SHAPE_MULTIPOLES>  (1) 
481.94
15.49
2.16
1.71
3.6
1.41
-0.89
-7.85
-0.56
2.45
-0.02
-3.62
-0.04
0.91

>  <PUBCHEM_SHAPE_SELFOVERLAP>  (1) 
1048.759

>  <PUBCHEM_SHAPE_VOLUME>  (1) 
263.1

>  <PUBCHEM_COORDINATE_TYPE>  (1) 
2
5
10

$$$$
