48386
     RDKit          3D

 13 12  0  0  0  0  0  0  0  0999 V2000
   -0.8318    0.6844   -1.1129 S   0  0  0  0  0  0  0  0  0  0  0  0
    0.8350   -1.1498    1.6729 O   0  0  0  0  0  0  0  0  0  0  0  0
    0.6796   -1.9626   -0.4783 N   0  0  0  0  0  0  0  0  0  0  0  0
    0.7392    0.4745   -0.1586 C   0  0  0  0  0  0  0  0  0  0  0  0
    1.9387    0.6718   -1.1255 C   0  0  0  0  0  0  0  0  0  0  0  0
    0.7991    1.5637    0.9471 C   0  0  0  0  0  0  0  0  0  0  0  0
    0.7570   -0.9423    0.4619 C   0  0  0  0  0  0  0  0  0  0  0  0
    3.3254    0.4825   -0.5136 C   0  0  0  0  0  0  0  0  0  0  0  0
    0.7118    3.0097    0.4628 C   0  0  0  0  0  0  0  0  0  0  0  0
   -1.9696    0.4272    0.2615 C   0  0  0  0  0  0  0  0  0  0  0  0
    0.6849   -3.3569   -0.1024 C   0  0  0  0  0  0  0  0  0  0  0  0
   -3.3832    0.5397   -0.2114 C   0  0  0  0  0  0  0  0  0  0  0  0
   -4.2859   -0.4418   -0.1035 C   0  0  0  0  0  0  0  0  0  0  0  0
  1  4  1  0
  1 10  1  0
  2  7  2  0
  3  7  1  0
  3 11  1  0
  4  5  1  0
  4  6  1  0
  4  7  1  0
  5  8  1  0
  6  9  1  0
 10 12  1  0
 12 13  2  0
M  END
>  <PUBCHEM_COMPOUND_CID>  (1) 
48386

>  <PUBCHEM_CONFORMER_RMSD>  (1) 
0.8

>  <PUBCHEM_CONFORMER_DIVERSEORDER>  (1) 
1
17
24
12
21
14
20
19
22
23
3
7
13
9
18
16
2
6
15
8
10
11
5
4

>  <PUBCHEM_MMFF94_PARTIAL_CHARGES>  (1) 
13
1 -0.46
10 0.37
11 0.3
12 -0.29
13 -0.3
2 -0.57
26 0.37
3 -0.73
30 0.15
31 0.15
32 0.15
4 0.29
7 0.57

>  <PUBCHEM_EFFECTIVE_ROTOR_COUNT>  (1) 
7

>  <PUBCHEM_PHARMACOPHORE_FEATURES>  (1) 
6
1 13 hydrophobe
1 2 acceptor
1 3 donor
1 8 hydrophobe
1 9 hydrophobe
6 1 4 5 6 10 12 hydrophobe

>  <PUBCHEM_HEAVY_ATOM_COUNT>  (1) 
13

>  <PUBCHEM_ATOM_DEF_STEREO_COUNT>  (1) 
0

>  <PUBCHEM_ATOM_UDEF_STEREO_COUNT>  (1) 
0

>  <PUBCHEM_BOND_DEF_STEREO_COUNT>  (1) 
0

>  <PUBCHEM_BOND_UDEF_STEREO_COUNT>  (1) 
0

>  <PUBCHEM_ISOTOPIC_ATOM_COUNT>  (1) 
0

>  <PUBCHEM_COMPONENT_COUNT>  (1) 
1

>  <PUBCHEM_CACTVS_TAUTO_COUNT>  (1) 
2

>  <PUBCHEM_CONFORMER_ID>  (1) 
0000BD0200000001

>  <PUBCHEM_MMFF94_ENERGY>  (1) 
24.1011

>  <PUBCHEM_FEATURE_SELFOVERLAP>  (1) 
30.457

>  <PUBCHEM_SHAPE_FINGERPRINT>  (1) 
12932764 1 18411130356027637901
13380536 305 18269837665127818229
15001771 113 17833274112213153308
15775835 57 18261672678915884573
16945 1 18191047679746304988
187816 3 18341065072600794604
20645477 70 18188483576540585935
20711985 344 17252867659739245480
21452121 199 18048864209120584371
21524375 3 18115027535980296284
23402539 116 18273493468760948540
23558518 356 17326320525153229952
2748010 2 18047759492224164161
3060560 45 18341325678019820303
3250762 1 17621324962674167660
5337951 7 18057330684961939804
53812653 11 18338233889761299180
589210 1 17763190137600528924
68250623 7 17692831293301155868
7364860 26 18411416177057480223
81228 2 17180239423239981443

>  <PUBCHEM_SHAPE_MULTIPOLES>  (1) 
260.53
4.79
2.95
1.13
5.7
1.58
0.11
-0.51
-0.85
-1.51
0.47
-0.37
-0.07
0.01

>  <PUBCHEM_SHAPE_SELFOVERLAP>  (1) 
474.266

>  <PUBCHEM_SHAPE_VOLUME>  (1) 
168

>  <PUBCHEM_COORDINATE_TYPE>  (1) 
2
5
10

$$$$
