48399
     RDKit          3D

 19 20  0  0  0  0  0  0  0  0999 V2000
    0.8192    0.6718    2.2433 O   0  0  0  0  0  0  0  0  0  0  0  0
    1.4037   -0.8977   -2.1436 O   0  0  0  0  0  0  0  0  0  0  0  0
    4.4588    1.9495   -0.2422 O   0  0  0  0  0  0  0  0  0  0  0  0
    2.6875    1.2300    1.0348 N   0  0  0  0  0  0  0  0  0  0  0  0
    2.9791    0.4464   -1.1568 N   0  0  0  0  0  0  0  0  0  0  0  0
   -2.4605   -0.0135   -0.4502 C   0  0  0  0  0  0  0  0  0  0  0  0
   -0.9670    0.2838   -0.3294 C   0  0  0  0  0  0  0  0  0  0  0  0
   -3.0368   -0.4530    0.9025 C   0  0  0  0  0  0  0  0  0  0  0  0
   -3.2139    1.2077   -0.9942 C   0  0  0  0  0  0  0  0  0  0  0  0
   -0.1998   -0.9358    0.1696 C   0  0  0  0  0  0  0  0  0  0  0  0
    1.3050   -0.6452    0.2661 C   0  0  0  0  0  0  0  0  0  0  0  0
   -4.5405   -0.7050    0.8195 C   0  0  0  0  0  0  0  0  0  0  0  0
   -4.7174    0.9532   -1.0739 C   0  0  0  0  0  0  0  0  0  0  0  0
   -5.2850    0.5079    0.2703 C   0  0  0  0  0  0  0  0  0  0  0  0
    2.0295   -1.8904    0.8079 C   0  0  0  0  0  0  0  0  0  0  0  0
    1.5435    0.4811    1.2667 C   0  0  0  0  0  0  0  0  0  0  0  0
    1.8624   -0.3755   -1.1280 C   0  0  0  0  0  0  0  0  0  0  0  0
    1.8771   -3.0598   -0.1386 C   0  0  0  0  0  0  0  0  0  0  0  0
    3.4552    1.2445   -0.1236 C   0  0  0  0  0  0  0  0  0  0  0  0
  1 16  2  0
  2 17  2  0
  3 19  2  0
  4 16  1  0
  4 19  1  0
  5 17  1  0
  5 19  1  0
  6  7  1  0
  6  8  1  0
  6  9  1  0
  7 10  1  0
  8 12  1  0
  9 13  1  0
 10 11  1  0
 11 15  1  0
 11 16  1  0
 11 17  1  0
 12 14  1  0
 13 14  1  0
 15 18  1  0
M  END
>  <PUBCHEM_COMPOUND_CID>  (1) 
48399

>  <PUBCHEM_CONFORMER_RMSD>  (1) 
0.8

>  <PUBCHEM_CONFORMER_DIVERSEORDER>  (1) 
1
10
13
9
20
17
14
2
15
19
18
16
6
12
8
11
3
5
4
7

>  <PUBCHEM_MMFF94_PARTIAL_CHARGES>  (1) 
11
1 -0.57
11 0.12
16 0.57
17 0.57
19 0.69
2 -0.57
3 -0.57
4 -0.49
40 0.37
41 0.37
5 -0.49

>  <PUBCHEM_EFFECTIVE_ROTOR_COUNT>  (1) 
5.8

>  <PUBCHEM_PHARMACOPHORE_FEATURES>  (1) 
8
1 1 acceptor
1 18 hydrophobe
1 2 acceptor
1 3 acceptor
1 4 donor
1 5 donor
6 4 5 11 16 17 19 rings
6 6 8 9 12 13 14 rings

>  <PUBCHEM_HEAVY_ATOM_COUNT>  (1) 
19

>  <PUBCHEM_ATOM_DEF_STEREO_COUNT>  (1) 
0

>  <PUBCHEM_ATOM_UDEF_STEREO_COUNT>  (1) 
0

>  <PUBCHEM_BOND_DEF_STEREO_COUNT>  (1) 
0

>  <PUBCHEM_BOND_UDEF_STEREO_COUNT>  (1) 
0

>  <PUBCHEM_ISOTOPIC_ATOM_COUNT>  (1) 
0

>  <PUBCHEM_COMPONENT_COUNT>  (1) 
1

>  <PUBCHEM_CACTVS_TAUTO_COUNT>  (1) 
5

>  <PUBCHEM_CONFORMER_ID>  (1) 
0000BD0F00000001

>  <PUBCHEM_MMFF94_ENERGY>  (1) 
41.163

>  <PUBCHEM_FEATURE_SELFOVERLAP>  (1) 
40.636

>  <PUBCHEM_SHAPE_FINGERPRINT>  (1) 
10366900 7 18201714089951246937
10498660 4 18333449824933604837
11132069 177 17168145620537781213
11405975 8 18042683897747981547
12553582 1 16559029381315873449
12730499 353 18412552028445849875
13134695 92 17700103553348812738
13224815 77 18409727353262198389
13296908 3 17822292336731633507
13955234 65 18335422322533466554
14289901 80 18408599258616569935
14341114 328 16588025757260463325
15163728 17 18115892817810052076
15375358 24 18114179744323123489
17349148 13 12757151298906803433
17980427 23 16951411107645313078
1813 80 17557430877522011526
18186145 218 17418084421830757635
19050596 39 15791735213405406149
19078846 21 17488183682306192803
19784866 140 17774455892678599790
19862831 5 14692854709392806677
20645477 70 18202284658797148631
21452121 103 18040428871886530876
2255824 54 16128650855789963143
231179 274 18342174496554043080
23402655 69 16630255735799389649
23419403 2 17406510794985960202
23557571 272 17530964649009055445
23559900 14 17749673965814596103
25 1 17703795859444780454
2838139 119 18120087540733419876
3060560 45 16845565439776622564
312423 11 17988087664808033771
347723 3 17703795834155167544
495365 180 18267285574528673771
5104073 3 17895479116532276953
6442390 28 18267025144417310698
7364860 26 18337107856979599462
81539 233 18411982481411936902

>  <PUBCHEM_SHAPE_MULTIPOLES>  (1) 
363.44
9.22
1.98
1.52
10.09
1.08
0.07
-3.45
-0.19
-2.16
-0.15
-0.55
-0.09
0.93

>  <PUBCHEM_SHAPE_SELFOVERLAP>  (1) 
749.127

>  <PUBCHEM_SHAPE_VOLUME>  (1) 
204.3

>  <PUBCHEM_COORDINATE_TYPE>  (1) 
2
5
10

$$$$
