48395
     RDKit          3D

 20 21  0  0  0  0  0  0  0  0999 V2000
   -3.2219    2.2554   -0.5505 O   0  0  0  0  0  0  0  0  0  0  0  0
   -0.8985   -1.1868    1.6410 O   0  0  0  0  0  0  0  0  0  0  0  0
   -4.5733   -2.1120   -0.9465 O   0  0  0  0  0  0  0  0  0  0  0  0
   -3.8358    0.0623   -0.8267 N   0  0  0  0  0  0  0  0  0  0  0  0
   -2.6755   -1.6571    0.2687 N   0  0  0  0  0  0  0  0  0  0  0  0
   -1.6274    0.5564    0.1212 C   0  0  0  0  0  0  0  0  0  0  0  0
   -1.0624    1.5750    1.1219 C   0  0  0  0  0  0  0  0  0  0  0  0
   -0.6708    0.4379   -1.0787 C   0  0  0  0  0  0  0  0  0  0  0  0
   -2.9621    1.0595   -0.4196 C   0  0  0  0  0  0  0  0  0  0  0  0
   -1.6940   -0.8193    0.7769 C   0  0  0  0  0  0  0  0  0  0  0  0
   -1.9941    1.7543    2.3010 C   0  0  0  0  0  0  0  0  0  0  0  0
    0.6725   -0.0476   -0.6376 C   0  0  0  0  0  0  0  0  0  0  0  0
   -3.7430   -1.2952   -0.5442 C   0  0  0  0  0  0  0  0  0  0  0  0
    1.8015    0.6546   -0.8220 C   0  0  0  0  0  0  0  0  0  0  0  0
    3.1501    0.2103   -0.4327 C   0  0  0  0  0  0  0  0  0  0  0  0
    3.2884   -0.7869    0.5201 C   0  0  0  0  0  0  0  0  0  0  0  0
    4.2569    0.7972   -1.0258 C   0  0  0  0  0  0  0  0  0  0  0  0
    4.5660   -1.2077    0.8894 C   0  0  0  0  0  0  0  0  0  0  0  0
    5.5344    0.3762   -0.6566 C   0  0  0  0  0  0  0  0  0  0  0  0
    5.6889   -0.6263    0.3009 C   0  0  0  0  0  0  0  0  0  0  0  0
  1  9  2  0
  2 10  2  0
  3 13  2  0
  4  9  1  0
  4 13  1  0
  5 10  1  0
  5 13  1  0
  6  7  1  0
  6  8  1  0
  6  9  1  0
  6 10  1  0
  7 11  1  0
  8 12  1  0
 12 14  2  0
 14 15  1  0
 15 16  2  0
 15 17  1  0
 16 18  1  0
 17 19  2  0
 18 20  2  0
 19 20  1  0
M  END
>  <PUBCHEM_COMPOUND_CID>  (1) 
48395

>  <PUBCHEM_CONFORMER_RMSD>  (1) 
0.6

>  <PUBCHEM_CONFORMER_DIVERSEORDER>  (1) 
1
15
4
7
12
8
5
11
16
2
14
13
6
3
9
10

>  <PUBCHEM_MMFF94_PARTIAL_CHARGES>  (1) 
27
1 -0.57
10 0.57
12 -0.29
13 0.69
14 -0.18
15 0.03
16 -0.15
17 -0.15
18 -0.15
19 -0.15
2 -0.57
20 -0.15
28 0.15
29 0.37
3 -0.57
30 0.37
31 0.15
32 0.15
33 0.15
34 0.15
35 0.15
36 0.15
4 -0.49
5 -0.49
6 0.12
8 0.14
9 0.57

>  <PUBCHEM_EFFECTIVE_ROTOR_COUNT>  (1) 
4.6

>  <PUBCHEM_PHARMACOPHORE_FEATURES>  (1) 
8
1 1 acceptor
1 11 hydrophobe
1 2 acceptor
1 3 acceptor
1 4 donor
1 5 donor
6 15 16 17 18 19 20 rings
6 4 5 6 9 10 13 rings

>  <PUBCHEM_HEAVY_ATOM_COUNT>  (1) 
20

>  <PUBCHEM_ATOM_DEF_STEREO_COUNT>  (1) 
0

>  <PUBCHEM_ATOM_UDEF_STEREO_COUNT>  (1) 
0

>  <PUBCHEM_BOND_DEF_STEREO_COUNT>  (1) 
0

>  <PUBCHEM_BOND_UDEF_STEREO_COUNT>  (1) 
1

>  <PUBCHEM_ISOTOPIC_ATOM_COUNT>  (1) 
0

>  <PUBCHEM_COMPONENT_COUNT>  (1) 
1

>  <PUBCHEM_CACTVS_TAUTO_COUNT>  (1) 
5

>  <PUBCHEM_CONFORMER_ID>  (1) 
0000BD0B00000001

>  <PUBCHEM_MMFF94_ENERGY>  (1) 
57.6111

>  <PUBCHEM_FEATURE_SELFOVERLAP>  (1) 
40.636

>  <PUBCHEM_SHAPE_FINGERPRINT>  (1) 
10366900 7 18059860597114663930
11315181 36 18413673509216349572
12107183 9 17612582333547084072
12236239 1 18259702289601601095
12403259 415 15339121217619279608
12555020 224 17313377937570098458
12596602 18 18343013398883940624
128620 24 15769774646035914932
13167823 11 18333447642973946598
13214271 11 10952050052599672553
13533116 47 18333728009796457826
13583140 156 17203316768269542254
14142880 1 15841006459533453025
15375358 24 15864070979547814112
15788980 27 11746937599213463196
17349148 13 18335143098356625374
17834072 33 18334294284275735572
18186145 218 13551483583284352148
19489759 90 18413385423794243132
200 152 18410291440875804390
20300324 65 18408321103259318959
20511986 3 17968921072723378518
20645477 70 17385720271445456826
21033648 29 15697709308324985546
21728266 224 18341039774663172279
2306618 200 18341054034302923297
23402539 116 18260544528783750397
23557571 272 17489319576443813741
23559900 14 18263354948865561188
4015057 19 17240767332386241164
4214541 1 18259702277017555148
5104073 3 17967253100905161712
559249 180 18188201001482528546
573450 72 18335414638989525588
76465 3 18199741617430515135
9709674 26 18187652379672135418

>  <PUBCHEM_SHAPE_MULTIPOLES>  (1) 
384.02
11.26
1.83
1.45
12.28
0.05
0.61
-2.79
-1.59
-2.44
0.34
-0.48
0.38
-1.28

>  <PUBCHEM_SHAPE_SELFOVERLAP>  (1) 
816.611

>  <PUBCHEM_SHAPE_VOLUME>  (1) 
210.9

>  <PUBCHEM_COORDINATE_TYPE>  (1) 
2
5
10

$$$$
