48408
     RDKit          3D

 18 19  0  0  1  0  0  0  0  0999 V2000
    0.4148   -0.8138   -2.2215 O   0  0  0  0  0  0  0  0  0  0  0  0
    0.2115    0.0383    2.3917 O   0  0  0  0  0  0  0  0  0  0  0  0
    3.4182    2.0221   -0.2230 O   0  0  0  0  0  0  0  0  0  0  0  0
    1.8522    0.6793   -1.2378 N   0  0  0  0  0  0  0  0  0  0  0  0
    1.7509    1.1043    1.0667 N   0  0  0  0  0  0  0  0  0  0  0  0
   -0.1534   -0.0113   -0.0049 C   0  0  0  0  0  0  0  0  0  0  0  0
   -1.1484    1.1151   -0.2566 C   0  0  0  0  0  0  0  0  0  0  0  0
   -0.9181   -1.3264    0.2042 C   0  0  0  0  0  0  0  0  0  0  0  0
   -2.1303    0.7928   -1.3932 C   0  0  0  0  0  0  0  0  0  0  0  0
    0.0030   -2.5473    0.3135 C   0  0  0  0  0  0  0  0  0  0  0  0
   -2.0655    1.3152    0.9106 C   0  0  0  0  0  0  0  0  0  0  0  0
   -3.4259    0.3309   -0.7237 C   0  0  0  0  0  0  0  0  0  0  0  0
    0.7202   -0.1220   -1.2504 C   0  0  0  0  0  0  0  0  0  0  0  0
    0.6094    0.3429    1.2677 C   0  0  0  0  0  0  0  0  0  0  0  0
   -3.3059    0.8901    0.6532 C   0  0  0  0  0  0  0  0  0  0  0  0
    0.8894   -2.7271   -0.9196 C   0  0  0  0  0  0  0  0  0  0  0  0
    0.8763   -2.4142    1.5633 C   0  0  0  0  0  0  0  0  0  0  0  0
    2.4014    1.3311   -0.1402 C   0  0  0  0  0  0  0  0  0  0  0  0
  1 13  2  0
  2 14  2  0
  3 18  2  0
  4 13  1  0
  4 18  1  0
  5 14  1  0
  5 18  1  0
  6  7  1  0
  6  8  1  0
  6 13  1  0
  6 14  1  0
  7  9  1  0
  7 11  1  0
  8 10  1  0
  9 12  1  0
 10 16  1  0
 10 17  1  0
 11 15  2  0
 12 15  1  0
M  END
>  <PUBCHEM_COMPOUND_CID>  (1) 
48408

>  <PUBCHEM_CONFORMER_RMSD>  (1) 
0.6

>  <PUBCHEM_CONFORMER_DIVERSEORDER>  (1) 
1
2
3

>  <PUBCHEM_MMFF94_PARTIAL_CHARGES>  (1) 
17
1 -0.57
11 -0.29
12 0.14
13 0.57
14 0.57
15 -0.29
18 0.69
2 -0.57
25 0.15
28 0.15
3 -0.57
35 0.37
36 0.37
4 -0.49
5 -0.49
6 0.12
7 0.14

>  <PUBCHEM_EFFECTIVE_ROTOR_COUNT>  (1) 
4.2

>  <PUBCHEM_PHARMACOPHORE_FEATURES>  (1) 
8
1 1 acceptor
1 2 acceptor
1 3 acceptor
1 4 donor
1 5 donor
3 10 16 17 hydrophobe
5 7 9 11 12 15 rings
6 4 5 6 13 14 18 rings

>  <PUBCHEM_HEAVY_ATOM_COUNT>  (1) 
18

>  <PUBCHEM_ATOM_DEF_STEREO_COUNT>  (1) 
0

>  <PUBCHEM_ATOM_UDEF_STEREO_COUNT>  (1) 
1

>  <PUBCHEM_BOND_DEF_STEREO_COUNT>  (1) 
0

>  <PUBCHEM_BOND_UDEF_STEREO_COUNT>  (1) 
0

>  <PUBCHEM_ISOTOPIC_ATOM_COUNT>  (1) 
0

>  <PUBCHEM_COMPONENT_COUNT>  (1) 
1

>  <PUBCHEM_CACTVS_TAUTO_COUNT>  (1) 
5

>  <PUBCHEM_CONFORMER_ID>  (1) 
0000BD1800000001

>  <PUBCHEM_MMFF94_ENERGY>  (1) 
81.524

>  <PUBCHEM_FEATURE_SELFOVERLAP>  (1) 
40.636

>  <PUBCHEM_SHAPE_FINGERPRINT>  (1) 
10702982 57 18042954548921828740
10863032 1 18410013277371587314
10922049 32 18335708268676256680
10948715 1 18408604798554896908
12138202 97 18268433623254671596
12326174 3 18198906907257035365
12423570 1 15369247526323495551
12592029 89 18187926140839752874
13024252 1 16155944174860731352
13132413 78 17621038664206265680
141345 1 14235456304221629694
14181834 199 18189609441185778935
14617773 55 17318986705549920168
14817 1 12273933130820833450
15775835 57 17895468228104586533
15852999 172 18200607989521878924
15881359 60 17612920196880489523
16945 1 18269556031221305206
19765921 60 17917163722750299313
20473742 2 17969768697140551370
21524375 3 18411694422028990724
22344851 341 18200889408447964151
23419403 2 17760980290848231578
23559900 14 18271807995362592840
25 1 17846234249038372841
2748010 2 18117025292974116751
305870 269 18336265630735093413
430814 3 18042106791102447520
4340502 62 18339378400489085033
528886 8 16343702127564536301
5845 1 9121396667159049655
7364860 26 18267586793126996991
81228 2 17687737655050301058

>  <PUBCHEM_SHAPE_MULTIPOLES>  (1) 
342.86
3.92
2.53
1.8
2.53
1.53
0.1
-2.34
-0.27
-2.12
0.14
-0.26
0.26
-0.17

>  <PUBCHEM_SHAPE_SELFOVERLAP>  (1) 
734.629

>  <PUBCHEM_SHAPE_VOLUME>  (1) 
187.4

>  <PUBCHEM_COORDINATE_TYPE>  (1) 
2
5
10

$$$$
