48419
     RDKit          3D

 24 26  0  0  0  0  0  0  0  0999 V2000
    0.2885    0.8779    2.2454 O   0  0  0  0  0  0  0  0  0  0  0  0
   -0.5070    1.7090   -2.3071 O   0  0  0  0  0  0  0  0  0  0  0  0
    1.6007    4.8289    0.3157 O   0  0  0  0  0  0  0  0  0  0  0  0
    1.0315    2.8098    1.2563 N   0  0  0  0  0  0  0  0  0  0  0  0
    0.6334    3.2252   -1.0177 N   0  0  0  0  0  0  0  0  0  0  0  0
    3.3298   -1.5288    0.1170 C   0  0  0  0  0  0  0  0  0  0  0  0
    2.0237   -0.8415    0.4748 C   0  0  0  0  0  0  0  0  0  0  0  0
    3.7383   -2.6035    1.1197 C   0  0  0  0  0  0  0  0  0  0  0  0
    3.2588   -2.3129   -1.1894 C   0  0  0  0  0  0  0  0  0  0  0  0
    1.6856    0.2446   -0.5361 C   0  0  0  0  0  0  0  0  0  0  0  0
    0.3583    0.9365   -0.1777 C   0  0  0  0  0  0  0  0  0  0  0  0
    4.7621   -3.4457    0.3646 C   0  0  0  0  0  0  0  0  0  0  0  0
    4.4608   -3.2491   -1.1222 C   0  0  0  0  0  0  0  0  0  0  0  0
   -0.7706   -0.1045   -0.1705 C   0  0  0  0  0  0  0  0  0  0  0  0
    0.5227    1.5201    1.2219 C   0  0  0  0  0  0  0  0  0  0  0  0
    0.0881    1.9738   -1.2630 C   0  0  0  0  0  0  0  0  0  0  0  0
   -2.1188    0.5635    0.0619 C   0  0  0  0  0  0  0  0  0  0  0  0
   -3.2326   -0.4520    0.0659 C   0  0  0  0  0  0  0  0  0  0  0  0
    1.1370    3.6943    0.1897 C   0  0  0  0  0  0  0  0  0  0  0  0
   -3.8711   -0.7682   -1.1242 C   0  0  0  0  0  0  0  0  0  0  0  0
   -3.6018   -1.0545    1.2595 C   0  0  0  0  0  0  0  0  0  0  0  0
   -4.9019   -1.7079   -1.1207 C   0  0  0  0  0  0  0  0  0  0  0  0
   -4.6326   -1.9942    1.2630 C   0  0  0  0  0  0  0  0  0  0  0  0
   -5.2827   -2.3210    0.0729 C   0  0  0  0  0  0  0  0  0  0  0  0
  1 15  2  0
  2 16  2  0
  3 19  2  0
  4 15  1  0
  4 19  1  0
  5 16  1  0
  5 19  1  0
  6  7  1  0
  6  8  1  0
  6  9  1  0
  7 10  1  0
  8 12  1  0
  9 13  1  0
 10 11  1  0
 11 14  1  0
 11 15  1  0
 11 16  1  0
 12 13  1  0
 14 17  1  0
 17 18  1  0
 18 20  2  0
 18 21  1  0
 20 22  1  0
 21 23  2  0
 22 24  2  0
 23 24  1  0
M  END
>  <PUBCHEM_COMPOUND_CID>  (1) 
48419

>  <PUBCHEM_CONFORMER_RMSD>  (1) 
0.8

>  <PUBCHEM_CONFORMER_DIVERSEORDER>  (1) 
1
13
18
10
15
24
17
25
9
23
14
5
12
6
21
7
22
11
19
20
8
4
3
16
2

>  <PUBCHEM_MMFF94_PARTIAL_CHARGES>  (1) 
23
1 -0.57
11 0.12
15 0.57
16 0.57
17 0.14
18 -0.14
19 0.69
2 -0.57
20 -0.15
21 -0.15
22 -0.15
23 -0.15
24 -0.15
3 -0.57
4 -0.49
42 0.37
43 0.37
44 0.15
45 0.15
46 0.15
47 0.15
48 0.15
5 -0.49

>  <PUBCHEM_EFFECTIVE_ROTOR_COUNT>  (1) 
7.6

>  <PUBCHEM_PHARMACOPHORE_FEATURES>  (1) 
8
1 1 acceptor
1 2 acceptor
1 3 acceptor
1 4 donor
1 5 donor
5 6 8 9 12 13 rings
6 18 20 21 22 23 24 rings
6 4 5 11 15 16 19 rings

>  <PUBCHEM_HEAVY_ATOM_COUNT>  (1) 
24

>  <PUBCHEM_ATOM_DEF_STEREO_COUNT>  (1) 
0

>  <PUBCHEM_ATOM_UDEF_STEREO_COUNT>  (1) 
0

>  <PUBCHEM_BOND_DEF_STEREO_COUNT>  (1) 
0

>  <PUBCHEM_BOND_UDEF_STEREO_COUNT>  (1) 
0

>  <PUBCHEM_ISOTOPIC_ATOM_COUNT>  (1) 
0

>  <PUBCHEM_COMPONENT_COUNT>  (1) 
1

>  <PUBCHEM_CACTVS_TAUTO_COUNT>  (1) 
5

>  <PUBCHEM_CONFORMER_ID>  (1) 
0000BD2300000001

>  <PUBCHEM_MMFF94_ENERGY>  (1) 
64.6966

>  <PUBCHEM_FEATURE_SELFOVERLAP>  (1) 
40.638

>  <PUBCHEM_SHAPE_FINGERPRINT>  (1) 
11488393 25 18261948660951547288
11763715 3 18121809169888620532
12107183 9 18198922339997677115
12363563 72 18337116674178446359
12788726 201 17756981212428138035
12969540 37 18336542845056799710
13103583 49 17417821599554850179
13533116 47 18267309910256855171
13544653 18 18341331110927031266
13631057 29 18191303780811215490
13955234 65 18195252349987302345
14863182 85 17756714396328153157
15163728 17 9006767739419376938
17492 89 18338795736631117023
17859628 70 18266744777821587899
1813 80 18342468014434611055
18681886 176 14906230462896509961
193927 3 18339651052854694999
20600515 1 17843697568528886745
20693207 138 17822286933742318871
20775438 99 17830722511394671379
20775530 9 18337112271879159603
21120745 212 18124898784535675396
21796203 349 18123786198474017458
23419403 2 17914303880121733976
23559900 14 17967810604945520439
25222932 49 17125640932055117647
3027735 51 17901950742430067315
314194 84 18411423942052922543
3380486 145 17485323930024713072
3421961 26 18410572928732129091
4409770 3 17830171303701722573
44802255 64 15944901783317864084
463206 1 18260551087015234523
5219985 13 9583222942646607762
5486654 36 18336840693060636467
633830 44 8142085364139064330
6442390 28 17331125408225315793
6669772 16 17907871939574780292
6673363 416 18340782443195643054
77188 2 18412263909091623408

>  <PUBCHEM_SHAPE_MULTIPOLES>  (1) 
466.34
9.74
5.25
1.61
5.19
4.95
0.02
-16.05
0.25
-5.14
-0.04
0.24
0.21
0.69

>  <PUBCHEM_SHAPE_SELFOVERLAP>  (1) 
990.46

>  <PUBCHEM_SHAPE_VOLUME>  (1) 
257.3

>  <PUBCHEM_COORDINATE_TYPE>  (1) 
2
5
10

$$$$
