48421
     RDKit          3D

 18 19  0  0  0  0  0  0  0  0999 V2000
   -0.5387   -0.2576    2.3653 O   0  0  0  0  0  0  0  0  0  0  0  0
   -0.5418   -0.3259   -2.3299 O   0  0  0  0  0  0  0  0  0  0  0  0
   -2.2348    3.2677   -0.0330 O   0  0  0  0  0  0  0  0  0  0  0  0
   -1.2948    1.5448    1.1644 N   0  0  0  0  0  0  0  0  0  0  0  0
   -1.2969    1.5104   -1.1810 N   0  0  0  0  0  0  0  0  0  0  0  0
    1.4523    0.4291    0.0057 C   0  0  0  0  0  0  0  0  0  0  0  0
    0.0504   -0.1549    0.0154 C   0  0  0  0  0  0  0  0  0  0  0  0
    2.3063   -0.0374    1.1806 C   0  0  0  0  0  0  0  0  0  0  0  0
    2.2808   -0.0156   -1.1953 C   0  0  0  0  0  0  0  0  0  0  0  0
    3.7361    0.2665    0.7439 C   0  0  0  0  0  0  0  0  0  0  0  0
    3.7172    0.2923   -0.7854 C   0  0  0  0  0  0  0  0  0  0  0  0
    0.1394   -1.6877    0.0376 C   0  0  0  0  0  0  0  0  0  0  0  0
   -0.6287    0.3350    1.2904 C   0  0  0  0  0  0  0  0  0  0  0  0
   -0.6306    0.2976   -1.2725 C   0  0  0  0  0  0  0  0  0  0  0  0
   -1.2168   -2.3376    0.0597 C   0  0  0  0  0  0  0  0  0  0  0  0
   -1.6352    2.1914   -0.0177 C   0  0  0  0  0  0  0  0  0  0  0  0
   -1.8353   -2.6829   -1.2645 C   0  0  0  0  0  0  0  0  0  0  0  0
   -1.8290   -2.6351    1.2163 C   0  0  0  0  0  0  0  0  0  0  0  0
  1 13  2  0
  2 14  2  0
  3 16  2  0
  4 13  1  0
  4 16  1  0
  5 14  1  0
  5 16  1  0
  6  7  1  0
  6  8  1  0
  6  9  1  0
  7 12  1  0
  7 13  1  0
  7 14  1  0
  8 10  1  0
  9 11  1  0
 10 11  1  0
 12 15  1  0
 15 17  1  0
 15 18  2  0
M  END
>  <PUBCHEM_COMPOUND_CID>  (1) 
48421

>  <PUBCHEM_CONFORMER_RMSD>  (1) 
0.6

>  <PUBCHEM_CONFORMER_DIVERSEORDER>  (1) 
1
5
10
9
6
4
8
3
7
2

>  <PUBCHEM_MMFF94_PARTIAL_CHARGES>  (1) 
17
1 -0.57
12 0.14
13 0.57
14 0.57
15 -0.28
16 0.69
17 0.14
18 -0.3
2 -0.57
3 -0.57
30 0.37
31 0.37
35 0.15
36 0.15
4 -0.49
5 -0.49
7 0.12

>  <PUBCHEM_EFFECTIVE_ROTOR_COUNT>  (1) 
4.6

>  <PUBCHEM_PHARMACOPHORE_FEATURES>  (1) 
7
1 1 acceptor
1 2 acceptor
1 3 acceptor
1 4 donor
1 5 donor
5 6 8 9 10 11 rings
6 4 5 7 13 14 16 rings

>  <PUBCHEM_HEAVY_ATOM_COUNT>  (1) 
18

>  <PUBCHEM_ATOM_DEF_STEREO_COUNT>  (1) 
0

>  <PUBCHEM_ATOM_UDEF_STEREO_COUNT>  (1) 
0

>  <PUBCHEM_BOND_DEF_STEREO_COUNT>  (1) 
0

>  <PUBCHEM_BOND_UDEF_STEREO_COUNT>  (1) 
0

>  <PUBCHEM_ISOTOPIC_ATOM_COUNT>  (1) 
0

>  <PUBCHEM_COMPONENT_COUNT>  (1) 
1

>  <PUBCHEM_CACTVS_TAUTO_COUNT>  (1) 
5

>  <PUBCHEM_CONFORMER_ID>  (1) 
0000BD2500000001

>  <PUBCHEM_MMFF94_ENERGY>  (1) 
57.4051

>  <PUBCHEM_FEATURE_SELFOVERLAP>  (1) 
35.563

>  <PUBCHEM_SHAPE_FINGERPRINT>  (1) 
12326174 3 17120307836091142525
12423570 1 14680952654593134050
13024252 1 13840258187088822078
13132413 78 17835541679247310665
13681431 1 17620191378738217871
14181834 199 17051613046827328559
14617773 55 17895191159927364774
14817 1 15183378633264400255
15906896 17 18408604738446343331
16945 1 18408890645881940571
19765921 60 17700116721523720761
19837323 101 18340189826483919924
20361792 2 17979359981751168242
20473742 2 17540535716918102143
20645476 183 18338518513228534508
20711985 344 18337947995305399834
21296965 67 17975700798332002971
21524375 3 17970345919165029552
22112679 90 17760971644967748955
23419403 2 17271705472119707001
23557571 272 18193260017922700912
2748010 2 17978538362954492106
305870 269 17905597805429735276
4175511 376 17404880145784373607
430814 3 18121489155358258508
576247 118 17980187905305867470
5845 1 13407382671083500794
7364860 26 17331675748144316745
81228 2 18337389438950275115
9981440 41 16915345902784790282

>  <PUBCHEM_SHAPE_MULTIPOLES>  (1) 
342.86
4.13
2.9
1.81
5.02
1.45
0
-1.2
-0.04
-3.66
-0.03
-0.35
-0.23
-0.02

>  <PUBCHEM_SHAPE_SELFOVERLAP>  (1) 
724.728

>  <PUBCHEM_SHAPE_VOLUME>  (1) 
189.5

>  <PUBCHEM_COORDINATE_TYPE>  (1) 
2
5
10

$$$$
