48448
     RDKit          3D

 16 16  0  0  1  0  0  0  0  0999 V2000
    0.3775    2.1606    0.5382 O   0  0  0  0  0  0  0  0  0  0  0  0
   -0.9492   -2.0794   -0.7694 O   0  0  0  0  0  0  0  0  0  0  0  0
    3.5145   -1.1183   -0.4589 O   0  0  0  0  0  0  0  0  0  0  0  0
    2.0038    0.5235    0.2299 N   0  0  0  0  0  0  0  0  0  0  0  0
    1.2807   -1.5920   -0.5397 N   0  0  0  0  0  0  0  0  0  0  0  0
   -0.3476   -0.1418    0.5554 C   0  0  0  0  0  0  0  0  0  0  0  0
   -1.7483    0.4072    0.2415 C   0  0  0  0  0  0  0  0  0  0  0  0
   -2.8400   -0.6443    0.5205 C   0  0  0  0  0  0  0  0  0  0  0  0
   -1.8540    0.8722   -1.2242 C   0  0  0  0  0  0  0  0  0  0  0  0
    0.6876    0.9735    0.4233 C   0  0  0  0  0  0  0  0  0  0  0  0
   -0.3146   -0.6277    2.0159 C   0  0  0  0  0  0  0  0  0  0  0  0
   -0.0659   -1.3441   -0.3305 C   0  0  0  0  0  0  0  0  0  0  0  0
   -4.2541   -0.1572    0.2361 C   0  0  0  0  0  0  0  0  0  0  0  0
   -0.9249    2.0262   -1.5750 C   0  0  0  0  0  0  0  0  0  0  0  0
    2.3545   -0.7533   -0.2495 C   0  0  0  0  0  0  0  0  0  0  0  0
    3.0800    1.4949    0.3863 C   0  0  0  0  0  0  0  0  0  0  0  0
  1 10  2  0
  2 12  2  0
  3 15  2  0
  4 10  1  0
  4 15  1  0
  4 16  1  0
  5 12  1  0
  5 15  1  0
  6  7  1  0
  6 10  1  0
  6 11  1  0
  6 12  1  0
  7  8  1  0
  7  9  1  0
  8 13  1  0
  9 14  1  0
M  END
>  <PUBCHEM_COMPOUND_CID>  (1) 
48448

>  <PUBCHEM_CONFORMER_RMSD>  (1) 
0.6

>  <PUBCHEM_CONFORMER_DIVERSEORDER>  (1) 
1
7
5
3
6
4
2

>  <PUBCHEM_MMFF94_PARTIAL_CHARGES>  (1) 
11
1 -0.57
10 0.57
12 0.57
15 0.69
16 0.3
2 -0.57
3 -0.57
31 0.37
4 -0.42
5 -0.49
6 0.12

>  <PUBCHEM_EFFECTIVE_ROTOR_COUNT>  (1) 
3.6

>  <PUBCHEM_PHARMACOPHORE_FEATURES>  (1) 
7
1 1 acceptor
1 13 hydrophobe
1 14 hydrophobe
1 2 acceptor
1 3 acceptor
1 5 donor
6 4 5 6 10 12 15 rings

>  <PUBCHEM_HEAVY_ATOM_COUNT>  (1) 
16

>  <PUBCHEM_ATOM_DEF_STEREO_COUNT>  (1) 
0

>  <PUBCHEM_ATOM_UDEF_STEREO_COUNT>  (1) 
1

>  <PUBCHEM_BOND_DEF_STEREO_COUNT>  (1) 
0

>  <PUBCHEM_BOND_UDEF_STEREO_COUNT>  (1) 
0

>  <PUBCHEM_ISOTOPIC_ATOM_COUNT>  (1) 
0

>  <PUBCHEM_COMPONENT_COUNT>  (1) 
1

>  <PUBCHEM_CACTVS_TAUTO_COUNT>  (1) 
3

>  <PUBCHEM_CONFORMER_ID>  (1) 
0000BD4000000001

>  <PUBCHEM_MMFF94_ENERGY>  (1) 
58.5227

>  <PUBCHEM_FEATURE_SELFOVERLAP>  (1) 
35.522

>  <PUBCHEM_SHAPE_FINGERPRINT>  (1) 
10219947 1 18341338850742578139
10353120 184 17676483969099175357
10863032 1 17845373408869439783
11132069 177 18334292110716445473
11471102 20 18343581845773125129
11578080 2 16556463052114796401
12423570 1 18191577760388869417
13024252 1 16515981293011178298
15219456 202 18409162199431690325
15775835 57 18341335612173719580
16945 1 18199466743433084969
17844478 74 18260552207947963309
18175812 5 18408328795756833487
20511035 2 17611477723471549449
20588541 1 18336267954269916785
21501502 16 18128248085294080086
22344851 262 18122063366752560693
22802520 49 18117268168847454532
23402539 116 17822559624835143120
23559900 14 17603595136171370002
2748010 2 18339349765277808788
3286 77 18343024371618176117
5084963 1 17968386640872676828
528886 8 18201433718100597315
77492 1 16845575313890351753

>  <PUBCHEM_SHAPE_MULTIPOLES>  (1) 
301.7
4.88
2.02
1.28
0.86
0.5
-0.19
-0.32
-0.05
-0.39
0.55
0.23
0.04
0.77

>  <PUBCHEM_SHAPE_SELFOVERLAP>  (1) 
618.033

>  <PUBCHEM_SHAPE_VOLUME>  (1) 
172.4

>  <PUBCHEM_COORDINATE_TYPE>  (1) 
2
5
10

$$$$
