48442
     RDKit          3D

 18 18  0  0  1  0  0  0  0  0999 V2000
   -0.1829    1.4993    1.0806 O   0  0  0  0  0  0  0  0  0  0  0  0
    2.7221   -1.9860    0.1533 O   0  0  0  0  0  0  0  0  0  0  0  0
   -1.1661   -1.6078   -2.2310 O   0  0  0  0  0  0  0  0  0  0  0  0
   -0.6600    0.0900   -0.7099 N   0  0  0  0  0  0  0  0  0  0  0  0
    0.7994   -1.7347   -1.0724 N   0  0  0  0  0  0  0  0  0  0  0  0
    1.6321    0.1777    0.1937 C   0  0  0  0  0  0  0  0  0  0  0  0
   -1.9717    0.6973   -0.9014 C   0  0  0  0  0  0  0  0  0  0  0  0
    0.1814    0.6511    0.2643 C   0  0  0  0  0  0  0  0  0  0  0  0
    2.3383    1.0221   -0.8826 C   0  0  0  0  0  0  0  0  0  0  0  0
    2.3229    0.4105    1.5466 C   0  0  0  0  0  0  0  0  0  0  0  0
    1.7790   -1.2818   -0.2042 C   0  0  0  0  0  0  0  0  0  0  0  0
   -2.8114    0.6329    0.3825 C   0  0  0  0  0  0  0  0  0  0  0  0
   -0.3955   -1.1029   -1.4102 C   0  0  0  0  0  0  0  0  0  0  0  0
   -1.8067    2.1398   -1.3694 C   0  0  0  0  0  0  0  0  0  0  0  0
    2.2683    2.4946   -0.5465 C   0  0  0  0  0  0  0  0  0  0  0  0
    1.7287   -0.4750    2.6196 C   0  0  0  0  0  0  0  0  0  0  0  0
   -2.9834   -0.7982    0.9005 C   0  0  0  0  0  0  0  0  0  0  0  0
   -3.7946   -0.8289    2.1867 C   0  0  0  0  0  0  0  0  0  0  0  0
  1  8  2  0
  2 11  2  0
  3 13  2  0
  4  7  1  0
  4  8  1  0
  4 13  1  0
  5 11  1  0
  5 13  1  0
  6  8  1  0
  6  9  1  0
  6 10  1  0
  6 11  1  0
  7 12  1  0
  7 14  1  0
  9 15  1  0
 10 16  1  0
 12 17  1  0
 17 18  1  0
M  END
>  <PUBCHEM_COMPOUND_CID>  (1) 
48442

>  <PUBCHEM_CONFORMER_RMSD>  (1) 
0.8

>  <PUBCHEM_CONFORMER_DIVERSEORDER>  (1) 
1
14
15
9
21
13
19
4
2
12
22
23
18
10
20
5
7
17
3
16
11
8
6

>  <PUBCHEM_MMFF94_PARTIAL_CHARGES>  (1) 
11
1 -0.57
11 0.57
13 0.69
2 -0.57
26 0.37
3 -0.57
4 -0.42
5 -0.49
6 0.12
7 0.3
8 0.57

>  <PUBCHEM_EFFECTIVE_ROTOR_COUNT>  (1) 
5.6

>  <PUBCHEM_PHARMACOPHORE_FEATURES>  (1) 
8
1 1 acceptor
1 15 hydrophobe
1 16 hydrophobe
1 18 hydrophobe
1 2 acceptor
1 3 acceptor
1 5 donor
6 4 5 6 8 11 13 rings

>  <PUBCHEM_HEAVY_ATOM_COUNT>  (1) 
18

>  <PUBCHEM_ATOM_DEF_STEREO_COUNT>  (1) 
0

>  <PUBCHEM_ATOM_UDEF_STEREO_COUNT>  (1) 
1

>  <PUBCHEM_BOND_DEF_STEREO_COUNT>  (1) 
0

>  <PUBCHEM_BOND_UDEF_STEREO_COUNT>  (1) 
0

>  <PUBCHEM_ISOTOPIC_ATOM_COUNT>  (1) 
0

>  <PUBCHEM_COMPONENT_COUNT>  (1) 
1

>  <PUBCHEM_CACTVS_TAUTO_COUNT>  (1) 
3

>  <PUBCHEM_CONFORMER_ID>  (1) 
0000BD3A00000001

>  <PUBCHEM_MMFF94_ENERGY>  (1) 
40.3552

>  <PUBCHEM_FEATURE_SELFOVERLAP>  (1) 
40.597

>  <PUBCHEM_SHAPE_FINGERPRINT>  (1) 
11471102 22 17987805090251389707
12423570 1 9755786336475871172
12491281 212 14692286295972070177
12808571 1 17986970723881412029
14252887 29 17824570645051646467
14787075 74 16955370526368692661
15309172 13 17988650726425310257
15852999 172 17341202144451738598
16945 1 18335697286334078756
17357990 137 15123234265099165467
18981168 100 15840992320100538067
20511035 2 18055905507290926877
21029758 27 18055081965056550502
21041028 32 16052129059817862806
2334 1 17700379681128436110
23402539 116 12901828268768266706
23419403 2 9219036980734988038
23493267 7 17972315110140830192
23557571 272 17313392257365304269
23559900 14 17821733797319248391
2748010 2 17840861885164604108
276578 36 17774175589848113843
3286 77 17022615395077342592
3797600 57 18193854840406595553
53812654 72 16590530285882024993
568465 68 17701826479274219051
81228 2 17414136229772633839

>  <PUBCHEM_SHAPE_MULTIPOLES>  (1) 
342.86
4.82
2.29
2.06
2.93
0.09
1.12
-1.79
-1.39
0.2
-1.01
-0.45
-0.14
0.65

>  <PUBCHEM_SHAPE_SELFOVERLAP>  (1) 
693.347

>  <PUBCHEM_SHAPE_VOLUME>  (1) 
200

>  <PUBCHEM_COORDINATE_TYPE>  (1) 
2
5
10

$$$$
