48457
     RDKit          3D

 16 16  0  0  1  0  0  0  0  0999 V2000
    1.4780    2.2248    0.6469 O   0  0  0  0  0  0  0  0  0  0  0  0
   -0.5794   -1.7546    1.8148 O   0  0  0  0  0  0  0  0  0  0  0  0
    2.8258   -1.7995   -1.2425 O   0  0  0  0  0  0  0  0  0  0  0  0
    2.0871    0.2786   -0.4758 N   0  0  0  0  0  0  0  0  0  0  0  0
    1.0825   -1.7408    0.2336 N   0  0  0  0  0  0  0  0  0  0  0  0
   -0.0485    0.3578    0.7526 C   0  0  0  0  0  0  0  0  0  0  0  0
   -1.0476    0.5064   -0.4091 C   0  0  0  0  0  0  0  0  0  0  0  0
   -2.4198   -0.1021   -0.0781 C   0  0  0  0  0  0  0  0  0  0  0  0
    1.2439    1.0561    0.3342 C   0  0  0  0  0  0  0  0  0  0  0  0
   -0.6282    1.0392    2.0024 C   0  0  0  0  0  0  0  0  0  0  0  0
    0.1209   -1.1288    1.0202 C   0  0  0  0  0  0  0  0  0  0  0  0
   -1.2027    1.9857   -0.7602 C   0  0  0  0  0  0  0  0  0  0  0  0
   -3.4161   -0.0338   -1.2379 C   0  0  0  0  0  0  0  0  0  0  0  0
    2.0465   -1.1265   -0.5627 C   0  0  0  0  0  0  0  0  0  0  0  0
   -4.7278   -0.7179   -0.8828 C   0  0  0  0  0  0  0  0  0  0  0  0
    3.1853    0.9554   -1.1555 C   0  0  0  0  0  0  0  0  0  0  0  0
  1  9  2  0
  2 11  2  0
  3 14  2  0
  4  9  1  0
  4 14  1  0
  4 16  1  0
  5 11  1  0
  5 14  1  0
  6  7  1  0
  6  9  1  0
  6 10  1  0
  6 11  1  0
  7  8  1  0
  7 12  1  0
  8 13  1  0
 13 15  1  0
M  END
>  <PUBCHEM_COMPOUND_CID>  (1) 
48457

>  <PUBCHEM_CONFORMER_RMSD>  (1) 
0.6

>  <PUBCHEM_CONFORMER_DIVERSEORDER>  (1) 
2
14
19
15
8
6
12
3
11
9
13
17
4
5
7
10
18
1
16

>  <PUBCHEM_MMFF94_PARTIAL_CHARGES>  (1) 
11
1 -0.57
11 0.57
14 0.69
16 0.3
2 -0.57
28 0.37
3 -0.57
4 -0.42
5 -0.49
6 0.12
9 0.57

>  <PUBCHEM_EFFECTIVE_ROTOR_COUNT>  (1) 
3.6

>  <PUBCHEM_PHARMACOPHORE_FEATURES>  (1) 
7
1 1 acceptor
1 12 hydrophobe
1 15 hydrophobe
1 2 acceptor
1 3 acceptor
1 5 donor
6 4 5 6 9 11 14 rings

>  <PUBCHEM_HEAVY_ATOM_COUNT>  (1) 
16

>  <PUBCHEM_ATOM_DEF_STEREO_COUNT>  (1) 
0

>  <PUBCHEM_ATOM_UDEF_STEREO_COUNT>  (1) 
2

>  <PUBCHEM_BOND_DEF_STEREO_COUNT>  (1) 
0

>  <PUBCHEM_BOND_UDEF_STEREO_COUNT>  (1) 
0

>  <PUBCHEM_ISOTOPIC_ATOM_COUNT>  (1) 
0

>  <PUBCHEM_COMPONENT_COUNT>  (1) 
1

>  <PUBCHEM_CACTVS_TAUTO_COUNT>  (1) 
3

>  <PUBCHEM_CONFORMER_ID>  (1) 
0000BD4900000002

>  <PUBCHEM_MMFF94_ENERGY>  (1) 
43.0709

>  <PUBCHEM_FEATURE_SELFOVERLAP>  (1) 
35.522

>  <PUBCHEM_SHAPE_FINGERPRINT>  (1) 
11086676 242 13183018527353594895
11961588 58 16952815226922706404
12138202 97 17749959988844960522
12251169 10 10375860870830436126
12423570 1 12191851800394458400
13299463 15 18336267846885184861
14817 1 11390085533365693650
15001771 113 17987518108878490873
15061688 2 15574716936392284380
15207287 21 18336819879501062824
15852999 172 18261956361896039082
16945 1 18343303707753992417
18186145 218 17894635820634873655
18534176 82 17823998894530860940
19422 9 18202286875195036191
200 152 17988650683428216758
20231682 184 14418132894435007615
20645477 70 18271225202301035655
20820808 20 17967525770765911019
21947302 44 18260823834533009196
22112679 90 17907856202139017035
22802520 49 18337113470369707251
23382010 3 17967823742395735150
23402539 116 17968365853442019548
23419403 2 17838068352340735225
23557571 272 17914878856083486010
23559900 14 18188495787280444428
2748010 2 17833563662066204888
3060560 45 17604414280639180935
3323516 105 18337391647043734207
53812653 217 17476655182513968528
59915604 170 17822014202796374117

>  <PUBCHEM_SHAPE_MULTIPOLES>  (1) 
301.7
5.38
2.01
1.57
5.01
0.06
-0.58
-1.1
3.61
-0.98
-0.17
0.06
-0.08
0.24

>  <PUBCHEM_SHAPE_SELFOVERLAP>  (1) 
613.281

>  <PUBCHEM_SHAPE_VOLUME>  (1) 
174.8

>  <PUBCHEM_COORDINATE_TYPE>  (1) 
2
5
10

$$$$
