48456
     RDKit          3D

 16 16  0  0  1  0  0  0  0  0999 V2000
    1.1499    2.4774    0.9816 O   0  0  0  0  0  0  0  0  0  0  0  0
   -0.6016   -1.6844    1.7157 O   0  0  0  0  0  0  0  0  0  0  0  0
    2.8532   -1.1651   -1.3594 O   0  0  0  0  0  0  0  0  0  0  0  0
    1.9790    0.7042   -0.2912 N   0  0  0  0  0  0  0  0  0  0  0  0
    1.0736   -1.4702    0.1026 N   0  0  0  0  0  0  0  0  0  0  0  0
   -1.2336    0.7580   -0.1783 C   0  0  0  0  0  0  0  0  0  0  0  0
   -0.1577    0.4940    0.8725 C   0  0  0  0  0  0  0  0  0  0  0  0
   -2.5186   -0.0531    0.0746 C   0  0  0  0  0  0  0  0  0  0  0  0
   -1.5674    2.2520   -0.2132 C   0  0  0  0  0  0  0  0  0  0  0  0
    1.0550    1.3257    0.5547 C   0  0  0  0  0  0  0  0  0  0  0  0
    0.0851   -0.9881    0.9665 C   0  0  0  0  0  0  0  0  0  0  0  0
   -3.5872    0.1466   -1.0028 C   0  0  0  0  0  0  0  0  0  0  0  0
    2.0198   -0.6775   -0.5877 C   0  0  0  0  0  0  0  0  0  0  0  0
   -4.8049   -0.7279   -0.7444 C   0  0  0  0  0  0  0  0  0  0  0  0
    3.0511    1.5242   -0.8453 C   0  0  0  0  0  0  0  0  0  0  0  0
    1.2045   -2.9159   -0.0458 C   0  0  0  0  0  0  0  0  0  0  0  0
  1 10  2  0
  2 11  2  0
  3 13  2  0
  4 10  1  0
  4 13  1  0
  4 15  1  0
  5 11  1  0
  5 13  1  0
  5 16  1  0
  6  7  1  0
  6  8  1  0
  6  9  1  0
  7 10  1  0
  7 11  1  0
  8 12  1  0
 12 14  1  0
M  END
>  <PUBCHEM_COMPOUND_CID>  (1) 
48456

>  <PUBCHEM_CONFORMER_RMSD>  (1) 
0.6

>  <PUBCHEM_CONFORMER_DIVERSEORDER>  (1) 
3
12
4
1
2
7
10
14
8
9
6
11
5
13

>  <PUBCHEM_MMFF94_PARTIAL_CHARGES>  (1) 
11
1 -0.57
10 0.57
11 0.57
13 0.69
15 0.3
16 0.3
2 -0.57
3 -0.57
4 -0.42
5 -0.42
7 0.12

>  <PUBCHEM_EFFECTIVE_ROTOR_COUNT>  (1) 
3.6

>  <PUBCHEM_PHARMACOPHORE_FEATURES>  (1) 
7
1 1 acceptor
1 14 hydrophobe
1 2 acceptor
1 3 acceptor
1 7 anion
1 9 hydrophobe
6 4 5 7 10 11 13 rings

>  <PUBCHEM_HEAVY_ATOM_COUNT>  (1) 
16

>  <PUBCHEM_ATOM_DEF_STEREO_COUNT>  (1) 
0

>  <PUBCHEM_ATOM_UDEF_STEREO_COUNT>  (1) 
1

>  <PUBCHEM_BOND_DEF_STEREO_COUNT>  (1) 
0

>  <PUBCHEM_BOND_UDEF_STEREO_COUNT>  (1) 
0

>  <PUBCHEM_ISOTOPIC_ATOM_COUNT>  (1) 
0

>  <PUBCHEM_COMPONENT_COUNT>  (1) 
1

>  <PUBCHEM_CACTVS_TAUTO_COUNT>  (1) 
1

>  <PUBCHEM_CONFORMER_ID>  (1) 
0000BD4800000003

>  <PUBCHEM_MMFF94_ENERGY>  (1) 
32.3338

>  <PUBCHEM_FEATURE_SELFOVERLAP>  (1) 
35.522

>  <PUBCHEM_SHAPE_FINGERPRINT>  (1) 
10756046 5 18119805807751969181
11961588 58 17534902197463571900
12138202 97 18043537320191597070
12400797 292 18273212019132015911
12423570 1 9653859856418781110
12716301 132 17607241249261054417
13380535 76 18261673761421625562
14251745 187 18339080509377274329
14761567 1 18044683947748078666
14817 1 8190880255692256770
15852999 172 18113902705683762794
16945 1 18261406498365207226
18186145 218 18113904840435489669
19422 9 18060144215263919117
20344682 6 18335987544482363293
20645477 70 18129930265834674063
21452121 199 18122608475359535506
21501502 16 18339361838673509809
21637258 2 15769781229936184124
22112679 90 17252304202863918474
23382010 3 18041572393906967751
23402539 116 18188479302372906228
23526113 38 18343312474151528072
23557571 272 17700678576275929130
23559900 14 18054528048005382916
25 1 18335426772166648313
2748010 2 18048330121251900978
2871803 45 18409162208485641053
3060560 45 18339631356271091885
3323516 105 18340207500633208111
6786 2 15403821137072599179
7832392 63 18055073164346911257

>  <PUBCHEM_SHAPE_MULTIPOLES>  (1) 
301.7
5.56
2.62
1.19
6.38
0.4
0.14
0.34
-3
-1.42
0.32
-0.16
0.19
0.18

>  <PUBCHEM_SHAPE_SELFOVERLAP>  (1) 
607.499

>  <PUBCHEM_SHAPE_VOLUME>  (1) 
175.7

>  <PUBCHEM_COORDINATE_TYPE>  (1) 
2
5
10

$$$$
