48462
     RDKit          3D

 18 18  0  0  1  0  0  0  0  0999 V2000
    0.1761    0.1409   -2.3075 O   0  0  0  0  0  0  0  0  0  0  0  0
    2.1243    1.5056    1.7412 O   0  0  0  0  0  0  0  0  0  0  0  0
    3.3646   -2.4385   -0.2494 O   0  0  0  0  0  0  0  0  0  0  0  0
    1.6976   -1.1933   -1.2272 N   0  0  0  0  0  0  0  0  0  0  0  0
    2.6703   -0.5121    0.7957 N   0  0  0  0  0  0  0  0  0  0  0  0
    0.6531    0.6463    0.0156 C   0  0  0  0  0  0  0  0  0  0  0  0
   -0.4902   -0.0297    0.7934 C   0  0  0  0  0  0  0  0  0  0  0  0
   -1.7801   -0.0037   -0.0531 C   0  0  0  0  0  0  0  0  0  0  0  0
   -3.0125   -0.7041    0.5622 C   0  0  0  0  0  0  0  0  0  0  0  0
    0.2684    2.1012   -0.2896 C   0  0  0  0  0  0  0  0  0  0  0  0
   -0.6680    0.6583    2.1474 C   0  0  0  0  0  0  0  0  0  0  0  0
    0.8193   -0.1220   -1.2917 C   0  0  0  0  0  0  0  0  0  0  0  0
    1.8825    0.6227    0.9184 C   0  0  0  0  0  0  0  0  0  0  0  0
   -4.2396   -0.6146   -0.3712 C   0  0  0  0  0  0  0  0  0  0  0  0
   -2.7337   -2.1791    0.8723 C   0  0  0  0  0  0  0  0  0  0  0  0
    1.3195    2.7705   -1.1462 C   0  0  0  0  0  0  0  0  0  0  0  0
    2.6176   -1.4590   -0.2200 C   0  0  0  0  0  0  0  0  0  0  0  0
   -4.6692    0.8107   -0.6904 C   0  0  0  0  0  0  0  0  0  0  0  0
  1 12  2  0
  2 13  2  0
  3 17  2  0
  4 12  1  0
  4 17  1  0
  5 13  1  0
  5 17  1  0
  6  7  1  0
  6 10  1  0
  6 12  1  0
  6 13  1  0
  7  8  1  0
  7 11  1  0
  8  9  1  0
  9 14  1  0
  9 15  1  0
 10 16  1  0
 14 18  1  0
M  END
>  <PUBCHEM_COMPOUND_CID>  (1) 
48462

>  <PUBCHEM_CONFORMER_RMSD>  (1) 
0.8

>  <PUBCHEM_CONFORMER_DIVERSEORDER>  (1) 
1
15
3
8
18
12
11
4
14
5
10
13
16
6
7
9
2
17

>  <PUBCHEM_MMFF94_PARTIAL_CHARGES>  (1) 
11
1 -0.57
12 0.57
13 0.57
17 0.69
2 -0.57
3 -0.57
36 0.37
37 0.37
4 -0.49
5 -0.49
6 0.12

>  <PUBCHEM_EFFECTIVE_ROTOR_COUNT>  (1) 
5.6

>  <PUBCHEM_PHARMACOPHORE_FEATURES>  (1) 
11
1 1 acceptor
1 11 hydrophobe
1 15 hydrophobe
1 16 hydrophobe
1 18 hydrophobe
1 2 acceptor
1 3 acceptor
1 4 donor
1 5 donor
4 7 8 9 14 hydrophobe
6 4 5 6 12 13 17 rings

>  <PUBCHEM_HEAVY_ATOM_COUNT>  (1) 
18

>  <PUBCHEM_ATOM_DEF_STEREO_COUNT>  (1) 
0

>  <PUBCHEM_ATOM_UDEF_STEREO_COUNT>  (1) 
2

>  <PUBCHEM_BOND_DEF_STEREO_COUNT>  (1) 
0

>  <PUBCHEM_BOND_UDEF_STEREO_COUNT>  (1) 
0

>  <PUBCHEM_ISOTOPIC_ATOM_COUNT>  (1) 
0

>  <PUBCHEM_COMPONENT_COUNT>  (1) 
1

>  <PUBCHEM_CACTVS_TAUTO_COUNT>  (1) 
5

>  <PUBCHEM_CONFORMER_ID>  (1) 
0000BD4E00000001

>  <PUBCHEM_MMFF94_ENERGY>  (1) 
52.4406

>  <PUBCHEM_FEATURE_SELFOVERLAP>  (1) 
56.075

>  <PUBCHEM_SHAPE_FINGERPRINT>  (1) 
10922523 26 18409443717837939979
116883 192 18337388232302342109
12011746 2 18059858342167084862
12423570 1 13674179885218706172
12725867 57 18334577949248235508
13134695 92 18060408115029116057
13464514 151 17459484409817864628
13571099 22 18411700984939362211
14181834 199 17989204871374138685
14817 1 13634009352351695996
15163728 17 17027154307562415853
16945 1 17917136278151708400
17834072 14 18341610387033220403
18186145 218 18335416847177618401
20233049 118 17459175322960306549
20645477 70 17917990585902081591
20671657 53 18338242569979771087
21069387 34 18272647944350960543
21524375 3 16960990211897918517
23419403 2 17843092862797931904
23559900 14 18409728465041620938
347723 3 15357983304806893898
439807 62 16627955635722543717
7364860 26 18190187973264524508
74978 22 18259992604169587555
81228 2 17980499861654798345
9709674 26 18263080080118348595
9999458 23 17702372047859016672

>  <PUBCHEM_SHAPE_MULTIPOLES>  (1) 
342.86
6.12
2.33
1.7
6.86
0.31
-0.2
-2.07
0.66
-1.37
0.4
-0.53
0.33
0.74

>  <PUBCHEM_SHAPE_SELFOVERLAP>  (1) 
692.597

>  <PUBCHEM_SHAPE_VOLUME>  (1) 
198.5

>  <PUBCHEM_COORDINATE_TYPE>  (1) 
2
5
10

$$$$
