48476
     RDKit          3D

 19 19  0  0  1  0  0  0  0  0999 V2000
   -2.0314    1.1488    0.2001 O   0  0  0  0  0  0  0  0  0  0  0  0
    0.1381    2.1380    1.3673 O   0  0  0  0  0  0  0  0  0  0  0  0
    0.7055   -0.7200   -2.3151 O   0  0  0  0  0  0  0  0  0  0  0  0
    4.2433    0.3221    0.4150 O   0  0  0  0  0  0  0  0  0  0  0  0
    2.1660    1.1510    0.9474 N   0  0  0  0  0  0  0  0  0  0  0  0
    2.4495   -0.2762   -0.8925 N   0  0  0  0  0  0  0  0  0  0  0  0
    0.1687    0.2555   -0.1609 C   0  0  0  0  0  0  0  0  0  0  0  0
   -0.2344   -0.9475    0.7104 C   0  0  0  0  0  0  0  0  0  0  0  0
   -1.0862    0.8506   -0.8161 C   0  0  0  0  0  0  0  0  0  0  0  0
   -0.8836   -2.0782   -0.1091 C   0  0  0  0  0  0  0  0  0  0  0  0
    0.7977    1.2891    0.7681 C   0  0  0  0  0  0  0  0  0  0  0  0
    1.1074   -0.2707   -1.2421 C   0  0  0  0  0  0  0  0  0  0  0  0
    0.9943   -1.4857    1.4479 C   0  0  0  0  0  0  0  0  0  0  0  0
   -1.3528   -3.2584    0.7450 C   0  0  0  0  0  0  0  0  0  0  0  0
   -0.7582    2.1081   -1.5963 C   0  0  0  0  0  0  0  0  0  0  0  0
    3.0345    0.3808    0.1833 C   0  0  0  0  0  0  0  0  0  0  0  0
   -2.0493   -4.3130   -0.1019 C   0  0  0  0  0  0  0  0  0  0  0  0
   -3.2228    1.7057   -0.3403 C   0  0  0  0  0  0  0  0  0  0  0  0
   -4.1862    2.0002    0.7898 C   0  0  0  0  0  0  0  0  0  0  0  0
  1  9  1  0
  1 18  1  0
  2 11  2  0
  3 12  2  0
  4 16  2  0
  5 11  1  0
  5 16  1  0
  6 12  1  0
  6 16  1  0
  7  8  1  0
  7  9  1  0
  7 11  1  0
  7 12  1  0
  8 10  1  0
  8 13  1  0
  9 15  1  0
 10 14  1  0
 14 17  1  0
 18 19  1  0
M  END
>  <PUBCHEM_COMPOUND_CID>  (1) 
48476

>  <PUBCHEM_CONFORMER_RMSD>  (1) 
0.8

>  <PUBCHEM_CONFORMER_DIVERSEORDER>  (1) 
8
1
18
3
12
6
11
20
17
4
10
13
7
2
15
21
19
14
16
9
5

>  <PUBCHEM_MMFF94_PARTIAL_CHARGES>  (1) 
14
1 -0.56
11 0.57
12 0.57
16 0.69
18 0.28
2 -0.57
3 -0.57
32 0.37
33 0.37
4 -0.57
5 -0.49
6 -0.49
7 0.12
9 0.28

>  <PUBCHEM_EFFECTIVE_ROTOR_COUNT>  (1) 
6.6

>  <PUBCHEM_PHARMACOPHORE_FEATURES>  (1) 
9
1 1 acceptor
1 13 hydrophobe
1 17 hydrophobe
1 2 acceptor
1 3 acceptor
1 4 acceptor
1 5 donor
1 6 donor
6 5 6 7 11 12 16 rings

>  <PUBCHEM_HEAVY_ATOM_COUNT>  (1) 
19

>  <PUBCHEM_ATOM_DEF_STEREO_COUNT>  (1) 
0

>  <PUBCHEM_ATOM_UDEF_STEREO_COUNT>  (1) 
2

>  <PUBCHEM_BOND_DEF_STEREO_COUNT>  (1) 
0

>  <PUBCHEM_BOND_UDEF_STEREO_COUNT>  (1) 
0

>  <PUBCHEM_ISOTOPIC_ATOM_COUNT>  (1) 
0

>  <PUBCHEM_COMPONENT_COUNT>  (1) 
1

>  <PUBCHEM_CACTVS_TAUTO_COUNT>  (1) 
5

>  <PUBCHEM_CONFORMER_ID>  (1) 
0000BD5C00000008

>  <PUBCHEM_MMFF94_ENERGY>  (1) 
59.0872

>  <PUBCHEM_FEATURE_SELFOVERLAP>  (1) 
45.721

>  <PUBCHEM_SHAPE_FINGERPRINT>  (1) 
10064457 181 18411423890987614193
116883 192 18123475140010062631
12423570 1 12216483545575125962
12725867 57 17399234638680402619
13134695 92 17260456497642606199
13140716 1 17904209470532032891
14178000 15 17472417029235543371
14817 1 14350278526774789030
16945 1 18268152126687027708
19930381 70 17257934789373822202
201361 129 17910117906537982017
20645477 70 17827347784080564605
21041028 32 17756161333642823803
21421861 104 17547862854301171985
21501502 16 18118969324179534820
22112679 90 17677059069361999156
22344851 262 17385446501275746812
22344851 341 17553490176028515840
23419403 2 17127936501078390390
23558518 356 18118400889199461801
23559900 14 18341608210434243992
2748010 2 18118427080305658507
276578 36 18189337878982817129
298252 57 17060326393036102845
3250762 1 18125720333842273848
427121 178 18337680702500461953
528886 8 17131254784442936380
7364860 26 17688025315091199551
81228 2 17971743621765999051
9925002 15 17897173622189321021
9981440 41 16264837615758003752

>  <PUBCHEM_SHAPE_MULTIPOLES>  (1) 
357.57
4.77
3.83
1.5
0.05
5.11
-0.48
-2.72
1.01
4.21
0.31
-0.3
-0.27
0

>  <PUBCHEM_SHAPE_SELFOVERLAP>  (1) 
726.685

>  <PUBCHEM_SHAPE_VOLUME>  (1) 
205.7

>  <PUBCHEM_COORDINATE_TYPE>  (1) 
2
5
10

$$$$
