48473
     RDKit          3D

 16 16  0  0  1  0  0  0  0  0999 V2000
    1.5844    0.5831   -0.2139 O   0  0  0  0  0  0  0  0  0  0  0  0
   -1.2548    0.5414    2.2021 O   0  0  0  0  0  0  0  0  0  0  0  0
   -1.2326   -0.3813   -2.4020 O   0  0  0  0  0  0  0  0  0  0  0  0
    0.9111   -3.1551    0.5589 O   0  0  0  0  0  0  0  0  0  0  0  0
   -0.0905   -1.2508    1.3685 N   0  0  0  0  0  0  0  0  0  0  0  0
   -0.0789   -1.7114   -0.9315 N   0  0  0  0  0  0  0  0  0  0  0  0
   -0.8190    0.5047   -0.1830 C   0  0  0  0  0  0  0  0  0  0  0  0
    0.4267    1.3924   -0.3547 C   0  0  0  0  0  0  0  0  0  0  0  0
   -2.0810    1.3615   -0.3608 C   0  0  0  0  0  0  0  0  0  0  0  0
   -0.7776   -0.0533    1.2361 C   0  0  0  0  0  0  0  0  0  0  0  0
   -0.7652   -0.5569   -1.2771 C   0  0  0  0  0  0  0  0  0  0  0  0
    0.4545    2.5092    0.6697 C   0  0  0  0  0  0  0  0  0  0  0  0
   -3.3282    0.5493   -0.0940 C   0  0  0  0  0  0  0  0  0  0  0  0
    0.3050   -2.1038    0.3452 C   0  0  0  0  0  0  0  0  0  0  0  0
    2.7762    1.3440   -0.3620 C   0  0  0  0  0  0  0  0  0  0  0  0
    3.9699    0.4270   -0.2016 C   0  0  0  0  0  0  0  0  0  0  0  0
  1  8  1  0
  1 15  1  0
  2 10  2  0
  3 11  2  0
  4 14  2  0
  5 10  1  0
  5 14  1  0
  6 11  1  0
  6 14  1  0
  7  8  1  0
  7  9  1  0
  7 10  1  0
  7 11  1  0
  8 12  1  0
  9 13  1  0
 15 16  1  0
M  END
>  <PUBCHEM_COMPOUND_CID>  (1) 
48473

>  <PUBCHEM_CONFORMER_RMSD>  (1) 
0.6

>  <PUBCHEM_CONFORMER_DIVERSEORDER>  (1) 
2
7
3
11
13
4
14
5
8
10
12
16
1
6
9
15

>  <PUBCHEM_MMFF94_PARTIAL_CHARGES>  (1) 
14
1 -0.56
10 0.57
11 0.57
14 0.69
15 0.28
2 -0.57
26 0.37
27 0.37
3 -0.57
4 -0.57
5 -0.49
6 -0.49
7 0.12
8 0.28

>  <PUBCHEM_EFFECTIVE_ROTOR_COUNT>  (1) 
4.6

>  <PUBCHEM_PHARMACOPHORE_FEATURES>  (1) 
8
1 1 acceptor
1 13 hydrophobe
1 2 acceptor
1 3 acceptor
1 4 acceptor
1 5 donor
1 6 donor
6 5 6 7 10 11 14 rings

>  <PUBCHEM_HEAVY_ATOM_COUNT>  (1) 
16

>  <PUBCHEM_ATOM_DEF_STEREO_COUNT>  (1) 
0

>  <PUBCHEM_ATOM_UDEF_STEREO_COUNT>  (1) 
1

>  <PUBCHEM_BOND_DEF_STEREO_COUNT>  (1) 
0

>  <PUBCHEM_BOND_UDEF_STEREO_COUNT>  (1) 
0

>  <PUBCHEM_ISOTOPIC_ATOM_COUNT>  (1) 
0

>  <PUBCHEM_COMPONENT_COUNT>  (1) 
1

>  <PUBCHEM_CACTVS_TAUTO_COUNT>  (1) 
5

>  <PUBCHEM_CONFORMER_ID>  (1) 
0000BD5900000002

>  <PUBCHEM_MMFF94_ENERGY>  (1) 
46.1536

>  <PUBCHEM_FEATURE_SELFOVERLAP>  (1) 
40.638

>  <PUBCHEM_SHAPE_FINGERPRINT>  (1) 
10702982 57 18341608269540328079
11315181 36 17418100958009261460
12423570 1 14788919001482823453
12592029 89 18409449150401831435
13024252 1 13768471145931091308
14713566 1 17489585683858740677
14817 1 11307606982868017334
15219459 28 17749973123002599747
15881359 60 17700994385126401175
16945 1 18335420123763216821
17954114 43 17609451138773309006
20473742 2 17899404299532899895
20645476 183 17970087701768302852
22112679 90 17700663264728094543
23419403 2 17534650134438565867
528862 383 18263073323511857911
598444 67 17977425756472662262
68250623 7 17977386027809110441
68419 9 17840827954996708285
81228 2 17320974673785388561
81539 233 18188206511909680501

>  <PUBCHEM_SHAPE_MULTIPOLES>  (1) 
295.83
3.77
2.55
1.56
2.75
1.46
0.05
-1.7
0.58
0.65
-0.51
-0.8
0.23
-0.22

>  <PUBCHEM_SHAPE_SELFOVERLAP>  (1) 
605.481

>  <PUBCHEM_SHAPE_VOLUME>  (1) 
168.8

>  <PUBCHEM_COORDINATE_TYPE>  (1) 
2
5
10

$$$$
