48482
     RDKit          3D

 15 15  0  0  0  0  0  0  0  0999 V2000
    1.5515    0.8678   -0.0114 O   0  0  0  0  0  0  0  0  0  0  0  0
   -1.2074    0.2476    2.3309 O   0  0  0  0  0  0  0  0  0  0  0  0
   -1.2438    0.1114   -2.3627 O   0  0  0  0  0  0  0  0  0  0  0  0
    1.1347   -2.9776    0.0575 O   0  0  0  0  0  0  0  0  0  0  0  0
    0.0411   -1.3027    1.1907 N   0  0  0  0  0  0  0  0  0  0  0  0
    0.0235   -1.3704   -1.1540 N   0  0  0  0  0  0  0  0  0  0  0  0
   -0.8293    0.6381   -0.0323 C   0  0  0  0  0  0  0  0  0  0  0  0
   -2.1443    1.4310   -0.0451 C   0  0  0  0  0  0  0  0  0  0  0  0
    0.3564    1.6188   -0.0697 C   0  0  0  0  0  0  0  0  0  0  0  0
   -0.7195   -0.1458    1.2718 C   0  0  0  0  0  0  0  0  0  0  0  0
   -0.7391   -0.2200   -1.2902 C   0  0  0  0  0  0  0  0  0  0  0  0
   -3.3337    0.5086    0.0989 C   0  0  0  0  0  0  0  0  0  0  0  0
    0.4616   -1.9458    0.0327 C   0  0  0  0  0  0  0  0  0  0  0  0
    2.7047    1.7032   -0.0412 C   0  0  0  0  0  0  0  0  0  0  0  0
    3.9437    0.8357    0.0241 C   0  0  0  0  0  0  0  0  0  0  0  0
  1  9  1  0
  1 14  1  0
  2 10  2  0
  3 11  2  0
  4 13  2  0
  5 10  1  0
  5 13  1  0
  6 11  1  0
  6 13  1  0
  7  8  1  0
  7  9  1  0
  7 10  1  0
  7 11  1  0
  8 12  1  0
 14 15  1  0
M  END
>  <PUBCHEM_COMPOUND_CID>  (1) 
48482

>  <PUBCHEM_CONFORMER_RMSD>  (1) 
0.6

>  <PUBCHEM_CONFORMER_DIVERSEORDER>  (1) 
1
9
12
6
15
10
11
5
2
13
3
14
7
4
8

>  <PUBCHEM_MMFF94_PARTIAL_CHARGES>  (1) 
14
1 -0.56
10 0.57
11 0.57
13 0.69
14 0.28
2 -0.57
23 0.37
24 0.37
3 -0.57
4 -0.57
5 -0.49
6 -0.49
7 0.12
9 0.28

>  <PUBCHEM_EFFECTIVE_ROTOR_COUNT>  (1) 
4.6

>  <PUBCHEM_PHARMACOPHORE_FEATURES>  (1) 
8
1 1 acceptor
1 12 hydrophobe
1 2 acceptor
1 3 acceptor
1 4 acceptor
1 5 donor
1 6 donor
6 5 6 7 10 11 13 rings

>  <PUBCHEM_HEAVY_ATOM_COUNT>  (1) 
15

>  <PUBCHEM_ATOM_DEF_STEREO_COUNT>  (1) 
0

>  <PUBCHEM_ATOM_UDEF_STEREO_COUNT>  (1) 
0

>  <PUBCHEM_BOND_DEF_STEREO_COUNT>  (1) 
0

>  <PUBCHEM_BOND_UDEF_STEREO_COUNT>  (1) 
0

>  <PUBCHEM_ISOTOPIC_ATOM_COUNT>  (1) 
0

>  <PUBCHEM_COMPONENT_COUNT>  (1) 
1

>  <PUBCHEM_CACTVS_TAUTO_COUNT>  (1) 
5

>  <PUBCHEM_CONFORMER_ID>  (1) 
0000BD6200000001

>  <PUBCHEM_MMFF94_ENERGY>  (1) 
35.5788

>  <PUBCHEM_FEATURE_SELFOVERLAP>  (1) 
40.638

>  <PUBCHEM_SHAPE_FINGERPRINT>  (1) 
10702982 57 18271803579054193117
10922049 32 18410296938418099341
11315181 36 17060347375017233200
12423570 1 10688465379829183633
12592029 89 18411983537699520314
13024252 1 14780367098731413692
14713566 1 17132113567253429972
14817 1 15528469467288533946
15219459 28 17896339032818452307
16945 1 17401204474091572009
20473742 2 18118676617752159855
22344851 12 13302978974213037163
23419403 2 17753640986207824299
528862 383 18339073774810486463
68250623 7 18123755244849975273
68419 9 17628317628824530741
81228 2 17467337259497072576
81539 233 18334856087119805277

>  <PUBCHEM_SHAPE_MULTIPOLES>  (1) 
275.25
3.98
2.25
1.57
2.84
1.66
0.03
-2.48
-0.07
0.96
0
-0.9
0.17
-0.04

>  <PUBCHEM_SHAPE_SELFOVERLAP>  (1) 
560.414

>  <PUBCHEM_SHAPE_VOLUME>  (1) 
157.4

>  <PUBCHEM_COORDINATE_TYPE>  (1) 
2
5
10

$$$$
