48497
     RDKit          3D

 12 12  0  0  0  0  0  0  0  0999 V2000
    2.3612   -1.9064   -0.0008 O   0  0  0  0  0  0  0  0  0  0  0  0
    3.4262    0.6618    0.0000 O   0  0  0  0  0  0  0  0  0  0  0  0
   -2.1224   -0.0791   -0.0001 N   0  0  0  0  0  0  0  0  0  0  0  0
   -0.6047    0.1193   -0.0001 C   0  0  0  0  0  0  0  0  0  0  0  0
   -2.7026    0.5736   -1.2515 C   0  0  0  0  0  0  0  0  0  0  0  0
   -2.7006    0.5560    1.2614 C   0  0  0  0  0  0  0  0  0  0  0  0
   -2.5117   -1.5559   -0.0097 C   0  0  0  0  0  0  0  0  0  0  0  0
    0.1601   -0.9986    0.0002 C   0  0  0  0  0  0  0  0  0  0  0  0
   -0.1544    1.3968   -0.0002 C   0  0  0  0  0  0  0  0  0  0  0  0
    1.5430   -0.8171    0.0003 C   0  0  0  0  0  0  0  0  0  0  0  0
    1.2286    1.5783    0.0001 C   0  0  0  0  0  0  0  0  0  0  0  0
    2.0773    0.4713    0.0004 C   0  0  0  0  0  0  0  0  0  0  0  0
  1 10  1  0
  2 12  1  0
  3  4  1  0
  3  5  1  0
  3  6  1  0
  3  7  1  0
  4  8  2  0
  4  9  1  0
  8 10  1  0
  9 11  2  0
 10 12  2  0
 11 12  1  0
M  CHG  1   3   1
M  END
>  <PUBCHEM_COMPOUND_CID>  (1) 
48497

>  <PUBCHEM_CONFORMER_RMSD>  (1) 
0.4

>  <PUBCHEM_CONFORMER_DIVERSEORDER>  (1) 
1
2

>  <PUBCHEM_MMFF94_PARTIAL_CHARGES>  (1) 
17
1 -0.53
10 0.08
11 -0.15
12 0.08
2 -0.53
22 0.15
23 0.15
24 0.15
25 0.45
26 0.45
3 -0.87
4 0.36
5 0.5
6 0.5
7 0.5
8 -0.15
9 -0.15

>  <PUBCHEM_EFFECTIVE_ROTOR_COUNT>  (1) 
1

>  <PUBCHEM_PHARMACOPHORE_FEATURES>  (1) 
4
1 1 donor
1 2 donor
1 3 cation
6 4 8 9 10 11 12 rings

>  <PUBCHEM_HEAVY_ATOM_COUNT>  (1) 
12

>  <PUBCHEM_ATOM_DEF_STEREO_COUNT>  (1) 
0

>  <PUBCHEM_ATOM_UDEF_STEREO_COUNT>  (1) 
0

>  <PUBCHEM_BOND_DEF_STEREO_COUNT>  (1) 
0

>  <PUBCHEM_BOND_UDEF_STEREO_COUNT>  (1) 
0

>  <PUBCHEM_ISOTOPIC_ATOM_COUNT>  (1) 
0

>  <PUBCHEM_COMPONENT_COUNT>  (1) 
1

>  <PUBCHEM_CACTVS_TAUTO_COUNT>  (1) 
8

>  <PUBCHEM_CONFORMER_ID>  (1) 
0000BD7100000001

>  <PUBCHEM_MMFF94_ENERGY>  (1) 
49.9978

>  <PUBCHEM_FEATURE_SELFOVERLAP>  (1) 
20.301

>  <PUBCHEM_SHAPE_FINGERPRINT>  (1) 
12138202 97 17677591151707243463
12423570 1 10718026621931344917
12524768 44 18341054003868653335
12897270 3 18410569612906522412
12932764 1 17967536739906916611
14325111 11 18338797922141300900
15775835 57 18408606984882907877
16945 1 18410856568356597536
17844478 74 17822024102949211929
200 152 18058721541817783399
20201158 50 18335414686054856775
20645477 70 18338228267976331799
23402655 69 18267284492466110205
23552423 10 18335143115209394758
2748010 2 18409448051006313054
29004967 10 18261116274434697544
3248919 1 17989484087203430023
369184 2 18408323268007160643
5084963 1 18191021407615893537
528886 8 18412542119618479953
63268167 104 18411697677529597257
8030462 33 17917705812200336497

>  <PUBCHEM_SHAPE_MULTIPOLES>  (1) 
230.23
4.63
1.69
0.88
0.22
0.36
0
0.22
0
0.42
0
-0.76
-0.18
0

>  <PUBCHEM_SHAPE_SELFOVERLAP>  (1) 
473.583

>  <PUBCHEM_SHAPE_VOLUME>  (1) 
136.1

>  <PUBCHEM_COORDINATE_TYPE>  (1) 
2
5
10

$$$$
