48507
     RDKit          3D

 13 13  0  0  0  0  0  0  0  0999 V2000
   -2.8650   -2.1337    0.0003 O   0  0  0  0  0  0  0  0  0  0  0  0
    1.4759    0.0048    0.0033 N   0  0  0  0  0  0  0  0  0  0  0  0
    1.9568   -1.4448    0.0167 C   0  0  0  0  0  0  0  0  0  0  0  0
   -0.0512    0.1077    0.0003 C   0  0  0  0  0  0  0  0  0  0  0  0
    2.0117    0.6949    1.2544 C   0  0  0  0  0  0  0  0  0  0  0  0
    2.0156    0.6723   -1.2585 C   0  0  0  0  0  0  0  0  0  0  0  0
   -0.6015    1.3455   -0.0014 C   0  0  0  0  0  0  0  0  0  0  0  0
    3.4694   -1.4683   -0.0094 C   0  0  0  0  0  0  0  0  0  0  0  0
   -0.7299   -1.0671    0.0013 C   0  0  0  0  0  0  0  0  0  0  0  0
   -1.9944    1.4196   -0.0026 C   0  0  0  0  0  0  0  0  0  0  0  0
    0.1904    2.6119   -0.0027 C   0  0  0  0  0  0  0  0  0  0  0  0
   -2.1227   -0.9930    0.0002 C   0  0  0  0  0  0  0  0  0  0  0  0
   -2.7550    0.2503   -0.0018 C   0  0  0  0  0  0  0  0  0  0  0  0
  1 12  1  0
  2  3  1  0
  2  4  1  0
  2  5  1  0
  2  6  1  0
  3  8  1  0
  4  7  2  0
  4  9  1  0
  7 10  1  0
  7 11  1  0
  9 12  2  0
 10 13  2  0
 12 13  1  0
M  CHG  1   2   1
M  END
>  <PUBCHEM_COMPOUND_CID>  (1) 
48507

>  <PUBCHEM_CONFORMER_RMSD>  (1) 
0.6

>  <PUBCHEM_CONFORMER_DIVERSEORDER>  (1) 
4
3
1
2

>  <PUBCHEM_MMFF94_PARTIAL_CHARGES>  (1) 
16
1 -0.53
10 -0.15
11 0.14
12 0.08
13 -0.15
2 -0.87
25 0.15
26 0.15
3 0.5
30 0.15
31 0.45
4 0.36
5 0.5
6 0.5
7 -0.14
9 -0.15

>  <PUBCHEM_EFFECTIVE_ROTOR_COUNT>  (1) 
2

>  <PUBCHEM_PHARMACOPHORE_FEATURES>  (1) 
3
1 1 donor
1 2 cation
6 4 7 9 10 12 13 rings

>  <PUBCHEM_HEAVY_ATOM_COUNT>  (1) 
13

>  <PUBCHEM_ATOM_DEF_STEREO_COUNT>  (1) 
0

>  <PUBCHEM_ATOM_UDEF_STEREO_COUNT>  (1) 
0

>  <PUBCHEM_BOND_DEF_STEREO_COUNT>  (1) 
0

>  <PUBCHEM_BOND_UDEF_STEREO_COUNT>  (1) 
0

>  <PUBCHEM_ISOTOPIC_ATOM_COUNT>  (1) 
0

>  <PUBCHEM_COMPONENT_COUNT>  (1) 
1

>  <PUBCHEM_CACTVS_TAUTO_COUNT>  (1) 
3

>  <PUBCHEM_CONFORMER_ID>  (1) 
0000BD7B00000004

>  <PUBCHEM_MMFF94_ENERGY>  (1) 
75.035

>  <PUBCHEM_FEATURE_SELFOVERLAP>  (1) 
15.223

>  <PUBCHEM_SHAPE_FINGERPRINT>  (1) 
11769659 78 18334853888180971466
12423570 1 11782442516831561077
12524768 44 18271803497481404501
12716758 59 18337664209746884817
12932764 1 17846218911783732535
13024252 1 15503237573980842297
14115302 16 18264214620892281236
14128692 85 18335145263046451198
15001771 113 18408327674332356968
15219456 202 18201988933245238520
161256 15 18122629628442486293
16945 1 18194683889480024545
17804303 29 18197498416051581354
17990270 104 18265048209646214513
193761 8 18338516464539787653
20201158 50 18057882455041532670
20559304 39 18264771145611472683
20588541 1 18055917593291889895
20645477 70 17831849519571387423
20871998 184 18201436930736414167
20871998 22 18267022932788377419
21061003 4 16917067703396739266
21501502 16 18411705395517171796
2334 1 18410855498804128871
23402539 116 18127959820464535637
23419403 2 17177375036599535028
23463225 33 18336831896376724614
23552423 10 18259706696190749230
23559900 14 18126561220658343986
241688 4 18410011000870102769
2748010 2 18412818097000069887
369184 2 17988634177678981001
5084963 1 18262802835082641336
7364860 26 18268148836937550088

>  <PUBCHEM_SHAPE_MULTIPOLES>  (1) 
256.68
4.5
2.3
0.86
1.03
0.39
0
-2.23
-0.01
-0.58
0
0.5
0.21
0

>  <PUBCHEM_SHAPE_SELFOVERLAP>  (1) 
524.828

>  <PUBCHEM_SHAPE_VOLUME>  (1) 
152.3

>  <PUBCHEM_COORDINATE_TYPE>  (1) 
2
5
10

$$$$
