48513
     RDKit          3D

 24 24  0  0  1  0  0  0  0  0999 V2000
    0.2236    0.6411    0.5530 O   0  0  0  0  0  0  0  0  0  0  0  0
    1.2199   -0.8670   -0.8741 O   0  0  0  0  0  0  0  0  0  0  0  0
    1.6584    3.1329   -0.5466 O   0  0  0  0  0  0  0  0  0  0  0  0
   -3.7659   -0.5521   -0.2162 N   0  0  0  0  0  0  0  0  0  0  0  0
   -3.4706   -0.1063    1.1673 C   0  0  0  0  0  0  0  0  0  0  0  0
   -2.1139    0.6274    1.2714 C   0  0  0  0  0  0  0  0  0  0  0  0
   -5.2603   -0.8625   -0.3826 C   0  0  0  0  0  0  0  0  0  0  0  0
   -2.9744   -1.8215   -0.5613 C   0  0  0  0  0  0  0  0  0  0  0  0
   -3.3892    0.5352   -1.2324 C   0  0  0  0  0  0  0  0  0  0  0  0
   -1.0123   -0.0502    0.4263 C   0  0  0  0  0  0  0  0  0  0  0  0
   -1.6951    0.6084    2.7568 C   0  0  0  0  0  0  0  0  0  0  0  0
   -2.2443    2.0960    0.8261 C   0  0  0  0  0  0  0  0  0  0  0  0
   -6.0619    0.3951   -0.1268 C   0  0  0  0  0  0  0  0  0  0  0  0
   -3.3266   -2.9123    0.4264 C   0  0  0  0  0  0  0  0  0  0  0  0
   -3.7420    0.0595   -2.6249 C   0  0  0  0  0  0  0  0  0  0  0  0
    1.2760    0.1243   -0.1576 C   0  0  0  0  0  0  0  0  0  0  0  0
    2.5268    0.9648    0.0826 C   0  0  0  0  0  0  0  0  0  0  0  0
    3.7786    0.1022    0.0511 C   0  0  0  0  0  0  0  0  0  0  0  0
    2.5917    2.1243   -0.9217 C   0  0  0  0  0  0  0  0  0  0  0  0
    4.2516   -0.4836    1.2255 C   0  0  0  0  0  0  0  0  0  0  0  0
    4.4536   -0.1039   -1.1521 C   0  0  0  0  0  0  0  0  0  0  0  0
    5.3996   -1.2751    1.1967 C   0  0  0  0  0  0  0  0  0  0  0  0
    5.6017   -0.8956   -1.1807 C   0  0  0  0  0  0  0  0  0  0  0  0
    6.0748   -1.4812   -0.0063 C   0  0  0  0  0  0  0  0  0  0  0  0
  1 10  1  0
  1 16  1  0
  2 16  2  0
  3 19  1  0
  4  5  1  0
  4  7  1  0
  4  8  1  0
  4  9  1  0
  5  6  1  0
  6 10  1  0
  6 11  1  0
  6 12  1  0
  7 13  1  0
  8 14  1  0
  9 15  1  0
 16 17  1  0
 17 18  1  0
 17 19  1  0
 18 20  2  0
 18 21  1  0
 20 22  1  0
 21 23  2  0
 22 24  2  0
 23 24  1  0
M  CHG  1   4   1
M  END
>  <PUBCHEM_COMPOUND_CID>  (1) 
48513

>  <PUBCHEM_CONFORMER_RMSD>  (1) 
1

>  <PUBCHEM_CONFORMER_DIVERSEORDER>  (1) 
1
122
119
130
100
51
81
131
57
52
67
110
91
83
129
76
38
105
71
96
106
104
124
115
59
21
82
77
123
127
107
98
112
63
73
121
95
93
68
120
55
114
87
85
99
41
118
109
50
111
64
125
92
17
56
84
42
43
46
6
86
49
26
47
22
101
62
58
33
126
78
16
113
108
25
88
103
89
40
32
14
74
48
102
37
80
28
45
97
69
94
60
11
117
4
116
27
54
24
70
19
23
79
34
30
75
20
35
66
9
90
2
61
53
12
72
5
128
31
13
7
44
65
8
39
18
29
3
36
10
15

>  <PUBCHEM_MMFF94_PARTIAL_CHARGES>  (1) 
24
1 -0.43
10 0.28
16 0.66
17 0.2
18 -0.14
19 0.28
2 -0.57
20 -0.15
21 -0.15
22 -0.15
23 -0.15
24 -0.15
3 -0.68
4 -1.01
5 0.5
53 0.15
54 0.15
55 0.4
56 0.15
57 0.15
58 0.15
7 0.5
8 0.5
9 0.5

>  <PUBCHEM_EFFECTIVE_ROTOR_COUNT>  (1) 
11

>  <PUBCHEM_PHARMACOPHORE_FEATURES>  (1) 
6
1 2 acceptor
1 3 acceptor
1 3 donor
1 4 cation
3 6 11 12 hydrophobe
6 18 20 21 22 23 24 rings

>  <PUBCHEM_HEAVY_ATOM_COUNT>  (1) 
24

>  <PUBCHEM_ATOM_DEF_STEREO_COUNT>  (1) 
0

>  <PUBCHEM_ATOM_UDEF_STEREO_COUNT>  (1) 
1

>  <PUBCHEM_BOND_DEF_STEREO_COUNT>  (1) 
0

>  <PUBCHEM_BOND_UDEF_STEREO_COUNT>  (1) 
0

>  <PUBCHEM_ISOTOPIC_ATOM_COUNT>  (1) 
0

>  <PUBCHEM_COMPONENT_COUNT>  (1) 
1

>  <PUBCHEM_CACTVS_TAUTO_COUNT>  (1) 
1

>  <PUBCHEM_CONFORMER_ID>  (1) 
0000BD8100000001

>  <PUBCHEM_MMFF94_ENERGY>  (1) 
119.3792

>  <PUBCHEM_FEATURE_SELFOVERLAP>  (1) 
30.446

>  <PUBCHEM_SHAPE_FINGERPRINT>  (1) 
10366900 7 17240202135858676056
11315181 36 17418376891390976995
11405975 8 18335137648058827403
12166972 35 18343864433062404960
12236239 1 18131914866525878321
12403259 415 17095234835183163997
12596602 18 17917989448210489482
12616971 3 18131348639618022501
12916754 54 18335988687170023329
13583140 156 17603877740212620962
13668630 136 18335144176420251346
13782708 43 18264205988773569683
14178342 30 17059513832468333616
14251752 14 18342173333229913393
14251757 5 15140959522051783214
14573314 32 16153428337859096862
15183329 4 18186798050335870215
15188451 53 17846211138151422130
15420108 30 17764033471382394393
15788980 27 18411140229518861850
17349148 13 18201723955111323918
17492 89 18193279808763171018
17857418 61 18342457028356582570
1813 80 18340215107357984092
18222031 100 18410859846044222992
18608769 82 15285653100900264697
18927931 339 17060063639795130292
192875 21 18342460356608161960
19489759 90 17917993841117858099
200 152 18343299271284942625
20645477 70 18260832614010528300
21033648 29 16587739871315533460
2132832 1 18202286904949500248
22061861 79 17240769450110975210
221357 26 17385438821542172541
22646028 1 18272092695020303576
23198884 109 15285358396970379883
23402539 116 18342737381966962377
23557571 272 17346047679247635608
23559900 14 18339637953182771952
3004659 81 18411982489680033567
34797466 226 14562543868492840006
4325135 7 15626218048516452384
44062 13 18261953046102762775
5104073 3 18129951190234916891
531348 171 17531801347003085530
542803 24 16081085978535512647
559249 180 18200595796041017217
59682541 52 17531511131873481055
59755656 215 18272091543674104542
59755656 520 16732990791248363257
67856867 119 18269554017172228976
960060 61 17458065971836638454

>  <PUBCHEM_SHAPE_MULTIPOLES>  (1) 
471.32
14.29
2.2
1.83
8.14
0.3
0.14
-5.97
-2.11
-0.2
-0.05
-1.06
0.25
-0.73

>  <PUBCHEM_SHAPE_SELFOVERLAP>  (1) 
943.262

>  <PUBCHEM_SHAPE_VOLUME>  (1) 
279.1

>  <PUBCHEM_COORDINATE_TYPE>  (1) 
2
5
10

$$$$
