48514
     RDKit          3D

 19 20  0  0  0  0  0  0  0  0999 V2000
   -4.9339    2.1841    0.1492 Cl  0  0  0  0  0  0  0  0  0  0  0  0
    4.9539   -2.1557    0.1045 Cl  0  0  0  0  0  0  0  0  0  0  0  0
    0.0245   -0.1156   -1.6863 O   0  0  0  0  0  0  0  0  0  0  0  0
   -0.3720   -0.0846   -0.4704 N   0  0  0  0  0  0  0  0  0  0  0  0
    0.3790    0.0809    0.5531 N   0  0  0  0  0  0  0  0  0  0  0  0
   -1.7941   -0.2337   -0.1952 C   0  0  0  0  0  0  0  0  0  0  0  0
   -2.3203   -1.4901    0.0218 C   0  0  0  0  0  0  0  0  0  0  0  0
    2.3110    1.4994    0.1529 C   0  0  0  0  0  0  0  0  0  0  0  0
    1.7552    0.2345    0.3446 C   0  0  0  0  0  0  0  0  0  0  0  0
   -2.5721    0.9057   -0.1620 C   0  0  0  0  0  0  0  0  0  0  0  0
   -3.6848   -1.6132    0.2839 C   0  0  0  0  0  0  0  0  0  0  0  0
   -1.4761   -2.7219   -0.0147 C   0  0  0  0  0  0  0  0  0  0  0  0
    3.6839    1.6339   -0.0535 C   0  0  0  0  0  0  0  0  0  0  0  0
    2.5723   -0.8959    0.3298 C   0  0  0  0  0  0  0  0  0  0  0  0
   -3.9365    0.7824    0.0999 C   0  0  0  0  0  0  0  0  0  0  0  0
   -4.4929   -0.4771    0.3229 C   0  0  0  0  0  0  0  0  0  0  0  0
    1.4567    2.7247    0.1645 C   0  0  0  0  0  0  0  0  0  0  0  0
    4.5010    0.5035   -0.0684 C   0  0  0  0  0  0  0  0  0  0  0  0
    3.9452   -0.7614    0.1232 C   0  0  0  0  0  0  0  0  0  0  0  0
  1 15  1  0
  2 19  1  0
  3  4  1  0
  4  5  2  0
  4  6  1  0
  5  9  1  0
  6  7  2  0
  6 10  1  0
  7 11  1  0
  7 12  1  0
  8  9  2  0
  8 13  1  0
  8 17  1  0
  9 14  1  0
 10 15  2  0
 11 16  2  0
 13 18  2  0
 14 19  2  0
 15 16  1  0
 18 19  1  0
M  CHG  2   3  -1   4   1
M  END
>  <PUBCHEM_COMPOUND_CID>  (1) 
48514

>  <PUBCHEM_CONFORMER_RMSD>  (1) 
0.6

>  <PUBCHEM_CONFORMER_DIVERSEORDER>  (1) 
1
6
7
11
12
4
5
10
9
8
2
3

>  <PUBCHEM_MMFF94_PARTIAL_CHARGES>  (1) 
25
1 -0.18
10 -0.15
11 -0.15
12 0.14
13 -0.15
14 -0.15
15 0.18
16 -0.15
17 0.14
18 -0.15
19 0.18
2 -0.18
20 0.15
21 0.15
25 0.15
26 0.15
27 0.15
3 -0.63
31 0.15
4 0.87
5 -0.39
6 -0.03
7 -0.14
8 -0.14
9 0.18

>  <PUBCHEM_EFFECTIVE_ROTOR_COUNT>  (1) 
2

>  <PUBCHEM_PHARMACOPHORE_FEATURES>  (1) 
3
1 3 anion
6 6 7 10 11 15 16 rings
6 8 9 13 14 18 19 rings

>  <PUBCHEM_HEAVY_ATOM_COUNT>  (1) 
19

>  <PUBCHEM_ATOM_DEF_STEREO_COUNT>  (1) 
0

>  <PUBCHEM_ATOM_UDEF_STEREO_COUNT>  (1) 
0

>  <PUBCHEM_BOND_DEF_STEREO_COUNT>  (1) 
0

>  <PUBCHEM_BOND_UDEF_STEREO_COUNT>  (1) 
0

>  <PUBCHEM_ISOTOPIC_ATOM_COUNT>  (1) 
0

>  <PUBCHEM_COMPONENT_COUNT>  (1) 
1

>  <PUBCHEM_CACTVS_TAUTO_COUNT>  (1) 
1

>  <PUBCHEM_CONFORMER_ID>  (1) 
0000BD8200000001

>  <PUBCHEM_MMFF94_ENERGY>  (1) 
53.7246

>  <PUBCHEM_FEATURE_SELFOVERLAP>  (1) 
15.223

>  <PUBCHEM_SHAPE_FINGERPRINT>  (1) 
10616163 171 18196092368081190814
1100329 8 16609980436081656811
11370993 144 18335138678708592653
11405975 8 18409446981559372122
11552529 35 17842283845879056803
116883 192 18198912401153385004
12107183 9 18122344579741489707
12173636 292 18339636858345795983
12251169 10 18338516447138008749
12403260 363 18343298193664636037
12500047 106 18411696625399740131
12507560 40 18411980294999315497
12553582 1 18263910065320945626
12633257 1 18337386041652295043
12788726 201 17846227605045784952
128620 24 13045940209500595994
13167823 11 18408602586609952747
13533116 47 18339076124617001039
13583140 156 17630318860230271610
13675066 3 18060412525960113282
14178342 30 17838313522586704914
14289901 80 18194119844030355192
14341114 176 18409455799301505313
14420673 8 18263929830449517282
14866123 147 17477491902494493242
15196674 1 18410292514474989136
15442244 35 18411418410282270680
17349148 13 17489875933500921303
17492 89 18265897032665809163
17804303 29 18335706030940422695
17844677 252 18410582807104220881
1813 80 16805322206119298124
18186145 218 17894904135816029850
20645477 70 18412263930835472350
20832881 197 18189054205531574938
21033648 29 18041825256434785357
21065198 57 18410574032427740019
21065199 12 18338797934857209633
21267235 1 18409738377789483299
21421861 104 17896025565157699352
221490 88 18263650735116186706
23402539 116 18201711830693090493
23402655 69 18408605889893295456
23559900 14 18341891875132144914
3004659 81 18260833649330242358
335352 9 18338797801671006036
351380 180 18342173384584631885
3545911 37 18340207487363288176
4214541 1 18410292514728287657
474 4 17314794224700649684
5104073 3 18409728473631562984
532947 4 18056765321374548871
543358 83 18409452479592361856
633830 44 17530965808460028760
7097593 13 18339076115773332750
77779 3 18409167739886501304
9709674 26 18337112396385757866

>  <PUBCHEM_SHAPE_MULTIPOLES>  (1) 
378.92
10.75
2.68
0.77
0.11
0.03
-0.16
0.05
0.9
-0.02
0.16
-0.01
-0.02
-0.03

>  <PUBCHEM_SHAPE_SELFOVERLAP>  (1) 
792.856

>  <PUBCHEM_SHAPE_VOLUME>  (1) 
218.4

>  <PUBCHEM_COORDINATE_TYPE>  (1) 
2
5
10

$$$$
