48522
     RDKit          3D

 16 16  0  0  0  0  0  0  0  0999 V2000
   -0.4402   -1.3648   -2.1231 O   0  0  0  0  0  0  0  0  0  0  0  0
    0.0820    1.0701    1.8579 O   0  0  0  0  0  0  0  0  0  0  0  0
    2.9379   -2.3671    0.8164 O   0  0  0  0  0  0  0  0  0  0  0  0
    1.3065   -1.7990   -0.7006 N   0  0  0  0  0  0  0  0  0  0  0  0
    1.5668   -0.5831    1.2884 N   0  0  0  0  0  0  0  0  0  0  0  0
    0.0744    0.3070   -0.4438 C   0  0  0  0  0  0  0  0  0  0  0  0
   -1.3986    0.7356   -0.5127 C   0  0  0  0  0  0  0  0  0  0  0  0
    0.9398    1.3393   -1.1884 C   0  0  0  0  0  0  0  0  0  0  0  0
   -2.2947   -0.2806    0.1828 C   0  0  0  0  0  0  0  0  0  0  0  0
    0.2517   -1.0264   -1.1631 C   0  0  0  0  0  0  0  0  0  0  0  0
    0.5365    0.3026    1.0100 C   0  0  0  0  0  0  0  0  0  0  0  0
   -3.7562    0.1646    0.1381 C   0  0  0  0  0  0  0  0  0  0  0  0
    0.8853    2.6660   -0.5069 C   0  0  0  0  0  0  0  0  0  0  0  0
    2.0131   -1.6241    0.4831 C   0  0  0  0  0  0  0  0  0  0  0  0
   -4.6615   -0.8223    0.8578 C   0  0  0  0  0  0  0  0  0  0  0  0
    1.9571    3.2822    0.0040 C   0  0  0  0  0  0  0  0  0  0  0  0
  1 10  2  0
  2 11  2  0
  3 14  2  0
  4 10  1  0
  4 14  1  0
  5 11  1  0
  5 14  1  0
  6  7  1  0
  6  8  1  0
  6 10  1  0
  6 11  1  0
  7  9  1  0
  8 13  1  0
  9 12  1  0
 12 15  1  0
 13 16  2  0
M  END
>  <PUBCHEM_COMPOUND_CID>  (1) 
48522

>  <PUBCHEM_CONFORMER_RMSD>  (1) 
0.6

>  <PUBCHEM_CONFORMER_DIVERSEORDER>  (1) 
1
22
7
17
23
31
16
15
14
13
25
3
29
21
19
18
27
12
6
20
28
30
4
10
11
26
5
2
24
9
8

>  <PUBCHEM_MMFF94_PARTIAL_CHARGES>  (1) 
17
1 -0.57
10 0.57
11 0.57
13 -0.29
14 0.69
16 -0.3
2 -0.57
25 0.37
26 0.37
27 0.15
3 -0.57
31 0.15
32 0.15
4 -0.49
5 -0.49
6 0.12
8 0.14

>  <PUBCHEM_EFFECTIVE_ROTOR_COUNT>  (1) 
5.6

>  <PUBCHEM_PHARMACOPHORE_FEATURES>  (1) 
8
1 1 acceptor
1 15 hydrophobe
1 16 hydrophobe
1 2 acceptor
1 3 acceptor
1 4 donor
1 5 donor
6 4 5 6 10 11 14 rings

>  <PUBCHEM_HEAVY_ATOM_COUNT>  (1) 
16

>  <PUBCHEM_ATOM_DEF_STEREO_COUNT>  (1) 
0

>  <PUBCHEM_ATOM_UDEF_STEREO_COUNT>  (1) 
0

>  <PUBCHEM_BOND_DEF_STEREO_COUNT>  (1) 
0

>  <PUBCHEM_BOND_UDEF_STEREO_COUNT>  (1) 
0

>  <PUBCHEM_ISOTOPIC_ATOM_COUNT>  (1) 
0

>  <PUBCHEM_COMPONENT_COUNT>  (1) 
1

>  <PUBCHEM_CACTVS_TAUTO_COUNT>  (1) 
5

>  <PUBCHEM_CONFORMER_ID>  (1) 
0000BD8A00000001

>  <PUBCHEM_MMFF94_ENERGY>  (1) 
35.7155

>  <PUBCHEM_FEATURE_SELFOVERLAP>  (1) 
40.636

>  <PUBCHEM_SHAPE_FINGERPRINT>  (1) 
10610426 29 17168422632342338290
10702982 57 17761491787098526420
10922049 32 17976272544378479013
11578080 2 16299486315325279660
12423570 1 11206649748001903740
12532896 13 17691130752297682972
12592029 89 18264214767216841104
14787075 74 17894636941880060482
14817 1 8097383005325186108
15906896 17 12101262921560548532
16945 1 18336817680124528748
20511035 2 18130213969335382527
20645477 70 18187077404279601803
21524375 3 17982180224992462661
22344851 12 12264358154090283146
22344851 341 18124323967101922166
23419403 2 17677590043341911108
23558518 356 16973077173244574445
2748010 2 17981014476405135620
276578 36 18127977614218676049
305870 269 18192711373983382573
394222 165 18127426737333941241
430814 3 18051408766826762605
5845 1 12066287645554020893
68419 9 17697576037851026589
7364860 26 18335986458034770841
81228 2 17478059258899678653
81539 233 18043816600535296653

>  <PUBCHEM_SHAPE_MULTIPOLES>  (1) 
301.7
4.86
2.87
1.49
8.18
0.97
0.15
-0.63
-1.61
-3.67
0.03
-0.2
-0.34
-0.37

>  <PUBCHEM_SHAPE_SELFOVERLAP>  (1) 
612.53

>  <PUBCHEM_SHAPE_VOLUME>  (1) 
172.7

>  <PUBCHEM_COORDINATE_TYPE>  (1) 
2
5
10

$$$$
