48548
     RDKit          3D

 17 17  0  0  0  0  0  0  0  0999 V2000
    0.0433   -1.5317   -2.1081 O   0  0  0  0  0  0  0  0  0  0  0  0
    0.1343    1.0997    1.7801 O   0  0  0  0  0  0  0  0  0  0  0  0
    3.3690   -2.0622    1.0089 O   0  0  0  0  0  0  0  0  0  0  0  0
    1.7587   -1.7263   -0.5974 N   0  0  0  0  0  0  0  0  0  0  0  0
    1.8037   -0.4123    1.3452 N   0  0  0  0  0  0  0  0  0  0  0  0
    0.3087    0.2495   -0.4842 C   0  0  0  0  0  0  0  0  0  0  0  0
   -1.1955    0.5204   -0.6324 C   0  0  0  0  0  0  0  0  0  0  0  0
   -2.0282   -0.5946    0.0050 C   0  0  0  0  0  0  0  0  0  0  0  0
   -3.5453   -0.3367   -0.0527 C   0  0  0  0  0  0  0  0  0  0  0  0
    1.0976    1.3356   -1.2374 C   0  0  0  0  0  0  0  0  0  0  0  0
    0.6530   -1.0858   -1.1363 C   0  0  0  0  0  0  0  0  0  0  0  0
    0.7024    0.3503    0.9861 C   0  0  0  0  0  0  0  0  0  0  0  0
   -3.8718    0.9937    0.6304 C   0  0  0  0  0  0  0  0  0  0  0  0
   -4.3542   -1.4611    0.5956 C   0  0  0  0  0  0  0  0  0  0  0  0
    0.8777    2.6754   -0.6176 C   0  0  0  0  0  0  0  0  0  0  0  0
    2.3896   -1.4326    0.6055 C   0  0  0  0  0  0  0  0  0  0  0  0
    1.8571    3.4188   -0.0908 C   0  0  0  0  0  0  0  0  0  0  0  0
  1 11  2  0
  2 12  2  0
  3 16  2  0
  4 11  1  0
  4 16  1  0
  5 12  1  0
  5 16  1  0
  6  7  1  0
  6 10  1  0
  6 11  1  0
  6 12  1  0
  7  8  1  0
  8  9  1  0
  9 13  1  0
  9 14  1  0
 10 15  1  0
 15 17  2  0
M  END
>  <PUBCHEM_COMPOUND_CID>  (1) 
48548

>  <PUBCHEM_CONFORMER_RMSD>  (1) 
0.8

>  <PUBCHEM_CONFORMER_DIVERSEORDER>  (1) 
1
12
4
9
8
11
5
6
7
13
3
2
10

>  <PUBCHEM_MMFF94_PARTIAL_CHARGES>  (1) 
17
1 -0.57
10 0.14
11 0.57
12 0.57
15 -0.29
16 0.69
17 -0.3
2 -0.57
3 -0.57
31 0.37
32 0.37
33 0.15
34 0.15
35 0.15
4 -0.49
5 -0.49
6 0.12

>  <PUBCHEM_EFFECTIVE_ROTOR_COUNT>  (1) 
5.6

>  <PUBCHEM_PHARMACOPHORE_FEATURES>  (1) 
8
1 1 acceptor
1 17 hydrophobe
1 2 acceptor
1 3 acceptor
1 4 donor
1 5 donor
3 9 13 14 hydrophobe
6 4 5 6 11 12 16 rings

>  <PUBCHEM_HEAVY_ATOM_COUNT>  (1) 
17

>  <PUBCHEM_ATOM_DEF_STEREO_COUNT>  (1) 
0

>  <PUBCHEM_ATOM_UDEF_STEREO_COUNT>  (1) 
0

>  <PUBCHEM_BOND_DEF_STEREO_COUNT>  (1) 
0

>  <PUBCHEM_BOND_UDEF_STEREO_COUNT>  (1) 
0

>  <PUBCHEM_ISOTOPIC_ATOM_COUNT>  (1) 
0

>  <PUBCHEM_COMPONENT_COUNT>  (1) 
1

>  <PUBCHEM_CACTVS_TAUTO_COUNT>  (1) 
5

>  <PUBCHEM_CONFORMER_ID>  (1) 
0000BDA400000001

>  <PUBCHEM_MMFF94_ENERGY>  (1) 
42.0869

>  <PUBCHEM_FEATURE_SELFOVERLAP>  (1) 
40.636

>  <PUBCHEM_SHAPE_FINGERPRINT>  (1) 
10610426 29 17096078078854890282
10922049 32 17903931289309889364
11578080 2 16444444850363035092
12423570 1 16759476131568538452
12532896 13 17545888586410055548
12592029 89 18263931119039439152
13134695 92 18335969896546016797
14787075 74 17821731637362109522
14817 1 16090964274614954356
16945 1 18335689598479807804
17041 49 18336555897994941369
20511035 2 18129653235410999599
20559304 39 17917722309512553473
20600515 1 18198627635651411799
21524375 3 17908997843322941493
22344851 341 17979080701707922190
23419403 2 18054757664412500056
23557571 272 18049158870110682094
23558518 356 16612787034170283797
2748010 2 16910855312550302206
298252 57 17625559138707771724
305870 269 18192995047983433213
394222 165 18198073679259489896
430814 3 17905884026223982421
568465 68 17916858020074087619
68419 9 17624955511155591108
7364860 26 18335985379887209681
74978 22 18260550013773400489
81228 2 17623589552805326537
81539 233 17898853710342635509

>  <PUBCHEM_SHAPE_MULTIPOLES>  (1) 
322.28
5.52
2.86
1.46
7.65
1.72
0.13
-1.56
-1.69
-2.98
0.09
-0.51
-0.32
-0.56

>  <PUBCHEM_SHAPE_SELFOVERLAP>  (1) 
653.372

>  <PUBCHEM_SHAPE_VOLUME>  (1) 
185.3

>  <PUBCHEM_COORDINATE_TYPE>  (1) 
2
5
10

$$$$
