48550
     RDKit          3D

 16 16  0  0  0  0  0  0  0  0999 V2000
    0.9617    1.7949   -1.6290 O   0  0  0  0  0  0  0  0  0  0  0  0
   -0.6135   -0.7501    1.9893 O   0  0  0  0  0  0  0  0  0  0  0  0
    3.4158   -1.7156    0.0171 O   0  0  0  0  0  0  0  0  0  0  0  0
    2.1397   -0.0205   -0.8682 N   0  0  0  0  0  0  0  0  0  0  0  0
    1.3526   -1.2923    0.9389 N   0  0  0  0  0  0  0  0  0  0  0  0
   -0.2053    0.2294   -0.1911 C   0  0  0  0  0  0  0  0  0  0  0  0
   -0.9748   -0.6798   -1.1659 C   0  0  0  0  0  0  0  0  0  0  0  0
   -1.1088    1.3954    0.2357 C   0  0  0  0  0  0  0  0  0  0  0  0
    1.0040    0.7717   -0.9464 C   0  0  0  0  0  0  0  0  0  0  0  0
    0.1441   -0.6177    1.0284 C   0  0  0  0  0  0  0  0  0  0  0  0
   -2.2337   -1.2333   -0.5567 C   0  0  0  0  0  0  0  0  0  0  0  0
   -0.3499    2.3772    1.0650 C   0  0  0  0  0  0  0  0  0  0  0  0
    2.3684   -1.0664    0.0179 C   0  0  0  0  0  0  0  0  0  0  0  0
   -3.4966   -0.4447   -0.7524 C   0  0  0  0  0  0  0  0  0  0  0  0
   -2.2352   -2.4049    0.0980 C   0  0  0  0  0  0  0  0  0  0  0  0
   -0.1684    3.6567    0.7194 C   0  0  0  0  0  0  0  0  0  0  0  0
  1  9  2  0
  2 10  2  0
  3 13  2  0
  4  9  1  0
  4 13  1  0
  5 10  1  0
  5 13  1  0
  6  7  1  0
  6  8  1  0
  6  9  1  0
  6 10  1  0
  7 11  1  0
  8 12  1  0
 11 14  1  0
 11 15  2  0
 12 16  2  0
M  END
>  <PUBCHEM_COMPOUND_CID>  (1) 
48550

>  <PUBCHEM_CONFORMER_RMSD>  (1) 
0.6

>  <PUBCHEM_CONFORMER_DIVERSEORDER>  (1) 
1
11
10
6
14
17
4
5
16
9
7
13
2
12
15
8
3

>  <PUBCHEM_MMFF94_PARTIAL_CHARGES>  (1) 
23
1 -0.57
10 0.57
11 -0.28
12 -0.29
13 0.69
14 0.14
15 -0.3
16 -0.3
2 -0.57
21 0.37
22 0.37
23 0.15
27 0.15
28 0.15
29 0.15
3 -0.57
30 0.15
4 -0.49
5 -0.49
6 0.12
7 0.14
8 0.14
9 0.57

>  <PUBCHEM_EFFECTIVE_ROTOR_COUNT>  (1) 
4.6

>  <PUBCHEM_PHARMACOPHORE_FEATURES>  (1) 
7
1 1 acceptor
1 16 hydrophobe
1 2 acceptor
1 3 acceptor
1 4 donor
1 5 donor
6 4 5 6 9 10 13 rings

>  <PUBCHEM_HEAVY_ATOM_COUNT>  (1) 
16

>  <PUBCHEM_ATOM_DEF_STEREO_COUNT>  (1) 
0

>  <PUBCHEM_ATOM_UDEF_STEREO_COUNT>  (1) 
0

>  <PUBCHEM_BOND_DEF_STEREO_COUNT>  (1) 
0

>  <PUBCHEM_BOND_UDEF_STEREO_COUNT>  (1) 
0

>  <PUBCHEM_ISOTOPIC_ATOM_COUNT>  (1) 
0

>  <PUBCHEM_COMPONENT_COUNT>  (1) 
1

>  <PUBCHEM_CACTVS_TAUTO_COUNT>  (1) 
5

>  <PUBCHEM_CONFORMER_ID>  (1) 
0000BDA600000001

>  <PUBCHEM_MMFF94_ENERGY>  (1) 
44.9068

>  <PUBCHEM_FEATURE_SELFOVERLAP>  (1) 
35.563

>  <PUBCHEM_SHAPE_FINGERPRINT>  (1) 
10702982 57 17691967068260442472
12423570 1 14016637607473379619
13024252 1 15576424323500234798
13464514 151 18195804300556339141
14617773 55 18263375711006151244
14648413 74 18125427864271193407
14713566 1 18191861232456658013
14817 1 13825967765606029664
15001771 113 18408040693181368126
15906896 17 17977125477675312681
16945 1 18126002659243211656
20233049 118 18266160769991635205
20511035 2 17032735527569259216
22112679 90 18200896014118136865
23419403 2 17324022382874327980
305870 269 17548399858172424213
430814 3 17330548744441233960
528886 8 16660352693308878319
5845 1 8966660948494030017
7364860 26 18053371386666267095
81228 2 18129951061385910361

>  <PUBCHEM_SHAPE_MULTIPOLES>  (1) 
301.7
3.69
3.11
1.39
1.71
2.83
-0.13
-2.7
0.92
-1.31
-0.87
-0.11
0.14
-0.11

>  <PUBCHEM_SHAPE_SELFOVERLAP>  (1) 
622.69

>  <PUBCHEM_SHAPE_VOLUME>  (1) 
169.7

>  <PUBCHEM_COORDINATE_TYPE>  (1) 
2
5
10

$$$$
