48558
     RDKit          3D

 18 18  0  0  1  0  0  0  0  0999 V2000
    2.0016   -1.0108    1.7760 O   0  0  0  0  0  0  0  0  0  0  0  0
    0.1108    0.2433   -2.3353 O   0  0  0  0  0  0  0  0  0  0  0  0
    2.4994    3.2578    0.1676 O   0  0  0  0  0  0  0  0  0  0  0  0
    2.1654    1.1478    1.0171 N   0  0  0  0  0  0  0  0  0  0  0  0
    1.2203    1.7745   -1.0363 N   0  0  0  0  0  0  0  0  0  0  0  0
    0.5118   -0.3414   -0.0163 C   0  0  0  0  0  0  0  0  0  0  0  0
   -0.8058    0.0106    0.6973 C   0  0  0  0  0  0  0  0  0  0  0  0
   -2.0338   -0.1597   -0.2164 C   0  0  0  0  0  0  0  0  0  0  0  0
    0.4765   -1.8142   -0.4494 C   0  0  0  0  0  0  0  0  0  0  0  0
   -0.9643   -0.8598    1.9465 C   0  0  0  0  0  0  0  0  0  0  0  0
    1.6359   -0.1339    0.9938 C   0  0  0  0  0  0  0  0  0  0  0  0
    0.6036    0.5508   -1.2502 C   0  0  0  0  0  0  0  0  0  0  0  0
   -3.3562    0.2085    0.4631 C   0  0  0  0  0  0  0  0  0  0  0  0
   -4.5354    0.0460   -0.4975 C   0  0  0  0  0  0  0  0  0  0  0  0
    1.7936   -2.2318   -1.0138 C   0  0  0  0  0  0  0  0  0  0  0  0
    1.9832    2.1436    0.0650 C   0  0  0  0  0  0  0  0  0  0  0  0
   -5.8559    0.3735    0.1810 C   0  0  0  0  0  0  0  0  0  0  0  0
    2.5493   -3.2046   -0.4924 C   0  0  0  0  0  0  0  0  0  0  0  0
  1 11  2  0
  2 12  2  0
  3 16  2  0
  4 11  1  0
  4 16  1  0
  5 12  1  0
  5 16  1  0
  6  7  1  0
  6  9  1  0
  6 11  1  0
  6 12  1  0
  7  8  1  0
  7 10  1  0
  8 13  1  0
  9 15  1  0
 13 14  1  0
 14 17  1  0
 15 18  2  0
M  END
>  <PUBCHEM_COMPOUND_CID>  (1) 
48558

>  <PUBCHEM_CONFORMER_RMSD>  (1) 
0.8

>  <PUBCHEM_CONFORMER_DIVERSEORDER>  (1) 
1
13
33
21
24
27
19
29
16
11
20
32
17
26
5
23
9
18
2
28
8
25
31
4
3
22
12
10
30
15
7
34
14
6

>  <PUBCHEM_MMFF94_PARTIAL_CHARGES>  (1) 
17
1 -0.57
11 0.57
12 0.57
15 -0.29
16 0.69
18 -0.3
2 -0.57
3 -0.57
31 0.37
32 0.37
33 0.15
37 0.15
38 0.15
4 -0.49
5 -0.49
6 0.12
9 0.14

>  <PUBCHEM_EFFECTIVE_ROTOR_COUNT>  (1) 
6.6

>  <PUBCHEM_PHARMACOPHORE_FEATURES>  (1) 
10
1 1 acceptor
1 10 hydrophobe
1 17 hydrophobe
1 18 hydrophobe
1 2 acceptor
1 3 acceptor
1 4 donor
1 5 donor
4 7 8 13 14 hydrophobe
6 4 5 6 11 12 16 rings

>  <PUBCHEM_HEAVY_ATOM_COUNT>  (1) 
18

>  <PUBCHEM_ATOM_DEF_STEREO_COUNT>  (1) 
0

>  <PUBCHEM_ATOM_UDEF_STEREO_COUNT>  (1) 
1

>  <PUBCHEM_BOND_DEF_STEREO_COUNT>  (1) 
0

>  <PUBCHEM_BOND_UDEF_STEREO_COUNT>  (1) 
0

>  <PUBCHEM_ISOTOPIC_ATOM_COUNT>  (1) 
0

>  <PUBCHEM_COMPONENT_COUNT>  (1) 
1

>  <PUBCHEM_CACTVS_TAUTO_COUNT>  (1) 
5

>  <PUBCHEM_CONFORMER_ID>  (1) 
0000BDAE00000001

>  <PUBCHEM_MMFF94_ENERGY>  (1) 
47.3736

>  <PUBCHEM_FEATURE_SELFOVERLAP>  (1) 
50.796

>  <PUBCHEM_SHAPE_FINGERPRINT>  (1) 
12423570 1 16886444268616946902
12616999 72 16343712049487519117
12725867 57 18268435637567946614
13134695 92 18265905661280954543
13955234 65 18341338846542822971
14142880 1 17396960831644541068
14817 1 12213492384331853006
14863182 85 15769495318442834279
15061688 2 17984703578086807304
15163728 17 18050027745894589117
15852999 172 18116442616267189963
15906896 17 17396141708566761890
16945 1 18338218410735879558
18186145 218 17749678407248194723
20473742 2 18411138026380266606
20645477 70 18408882932753939507
20671657 53 18055921991660635263
21524375 3 17974284631713704752
2255824 54 18272657809606106831
23419403 2 17897421948882357806
23526113 38 18043547030891516643
23559900 14 18341613690116603347
3060560 45 18342461460567309236
312423 11 17703244923058211875
5845 1 11701286490007043040
7364860 26 18412830174516671535
81228 2 17255147561561209418
8272917 22 18342738515959368369
9999458 23 18342178898990356972

>  <PUBCHEM_SHAPE_MULTIPOLES>  (1) 
342.86
6.65
2.75
1.59
14.75
0.38
-0.05
0.04
-0.05
-4.48
0.47
-0.47
-0.16
0.37

>  <PUBCHEM_SHAPE_SELFOVERLAP>  (1) 
694.482

>  <PUBCHEM_SHAPE_VOLUME>  (1) 
197.1

>  <PUBCHEM_COORDINATE_TYPE>  (1) 
2
5
10

$$$$
