48572
     RDKit          3D

 16 16  0  0  0  0  0  0  0  0999 V2000
   -1.8533   -0.5098   -0.0099 S   0  0  0  0  0  0  0  0  0  0  0  0
    0.4441   -0.9504   -2.2653 O   0  0  0  0  0  0  0  0  0  0  0  0
    0.3266    1.1702    1.9227 O   0  0  0  0  0  0  0  0  0  0  0  0
    3.6255   -1.8559    0.9151 O   0  0  0  0  0  0  0  0  0  0  0  0
    2.0888   -1.3269   -0.7110 N   0  0  0  0  0  0  0  0  0  0  0  0
    2.0297   -0.2681    1.3813 N   0  0  0  0  0  0  0  0  0  0  0  0
    0.6153    0.6130   -0.4196 C   0  0  0  0  0  0  0  0  0  0  0  0
    1.4276    1.7885   -0.9917 C   0  0  0  0  0  0  0  0  0  0  0  0
   -0.8831    0.8942   -0.6040 C   0  0  0  0  0  0  0  0  0  0  0  0
    1.0031   -0.6281   -1.2172 C   0  0  0  0  0  0  0  0  0  0  0  0
    0.9387    0.5292    1.0688 C   0  0  0  0  0  0  0  0  0  0  0  0
    1.1339    3.0664   -0.2385 C   0  0  0  0  0  0  0  0  0  0  0  0
    2.6597   -1.1846    0.5480 C   0  0  0  0  0  0  0  0  0  0  0  0
   -3.5061    0.1340   -0.3634 C   0  0  0  0  0  0  0  0  0  0  0  0
   -4.5448   -0.8609    0.0441 C   0  0  0  0  0  0  0  0  0  0  0  0
   -5.5059   -0.6108    0.9406 C   0  0  0  0  0  0  0  0  0  0  0  0
  1  9  1  0
  1 14  1  0
  2 10  2  0
  3 11  2  0
  4 13  2  0
  5 10  1  0
  5 13  1  0
  6 11  1  0
  6 13  1  0
  7  8  1  0
  7  9  1  0
  7 10  1  0
  7 11  1  0
  8 12  1  0
 14 15  1  0
 15 16  2  0
M  END
>  <PUBCHEM_COMPOUND_CID>  (1) 
48572

>  <PUBCHEM_CONFORMER_RMSD>  (1) 
0.6

>  <PUBCHEM_CONFORMER_DIVERSEORDER>  (1) 
1
30
34
29
39
25
27
18
22
19
8
28
14
24
35
33
15
21
23
6
37
31
32
38
9
26
36
20
2
17
16
10
3
12
5
13
7
11
4

>  <PUBCHEM_MMFF94_PARTIAL_CHARGES>  (1) 
19
1 -0.46
10 0.57
11 0.57
13 0.69
14 0.37
15 -0.29
16 -0.3
2 -0.57
24 0.37
25 0.37
28 0.15
29 0.15
3 -0.57
30 0.15
4 -0.57
5 -0.49
6 -0.49
7 0.12
9 0.23

>  <PUBCHEM_EFFECTIVE_ROTOR_COUNT>  (1) 
5.6

>  <PUBCHEM_PHARMACOPHORE_FEATURES>  (1) 
9
1 12 hydrophobe
1 16 hydrophobe
1 2 acceptor
1 3 acceptor
1 4 acceptor
1 5 donor
1 6 donor
4 1 9 14 15 hydrophobe
6 5 6 7 10 11 13 rings

>  <PUBCHEM_HEAVY_ATOM_COUNT>  (1) 
16

>  <PUBCHEM_ATOM_DEF_STEREO_COUNT>  (1) 
0

>  <PUBCHEM_ATOM_UDEF_STEREO_COUNT>  (1) 
0

>  <PUBCHEM_BOND_DEF_STEREO_COUNT>  (1) 
0

>  <PUBCHEM_BOND_UDEF_STEREO_COUNT>  (1) 
0

>  <PUBCHEM_ISOTOPIC_ATOM_COUNT>  (1) 
0

>  <PUBCHEM_COMPONENT_COUNT>  (1) 
1

>  <PUBCHEM_CACTVS_TAUTO_COUNT>  (1) 
5

>  <PUBCHEM_CONFORMER_ID>  (1) 
0000BDBC00000001

>  <PUBCHEM_MMFF94_ENERGY>  (1) 
41.0405

>  <PUBCHEM_FEATURE_SELFOVERLAP>  (1) 
45.713

>  <PUBCHEM_SHAPE_FINGERPRINT>  (1) 
10610426 29 17241599533791624662
11067466 332 17703801339770471517
11578080 2 16372381758909633468
12592029 89 18263646328506413304
12644460 14 18337963392852735693
13134695 92 18200009807825498021
14344429 50 18113900485148721407
16945 1 17202179886036150900
18186145 218 16805314514471069829
20339313 130 18409449180799106493
20559304 39 17346612871658937585
20645477 70 18041549352220028727
23419403 2 18055603210429336016
2748010 2 16626287431200195494
31174 14 18188204411855380069
3286 77 18040718065394187327
394222 165 18055360389994577280
54040823 5 18334868233213159814
7364860 26 18262798591597145013
81539 233 17970350544670754036

>  <PUBCHEM_SHAPE_MULTIPOLES>  (1) 
305.55
7.09
2.12
1.55
13.5
1.38
0.1
-3.73
-1.93
-2.34
-0.03
-0.64
-0.16
-0.15

>  <PUBCHEM_SHAPE_SELFOVERLAP>  (1) 
606.923

>  <PUBCHEM_SHAPE_VOLUME>  (1) 
182.5

>  <PUBCHEM_COORDINATE_TYPE>  (1) 
2
5
10

$$$$
