4858
     RDKit          3D

 22 24  0  0  0  0  0  0  0  0999 V2000
    4.8027    2.0403    0.2239 O   0  0  0  0  0  0  0  0  0  0  0  0
   -3.9585    1.3622   -0.3690 O   0  0  0  0  0  0  0  0  0  0  0  0
    2.5177    2.0733    0.0748 N   0  0  0  0  0  0  0  0  0  0  0  0
   -2.4448   -0.4379   -0.3306 N   0  0  0  0  0  0  0  0  0  0  0  0
   -6.0197   -0.3980    0.1288 N   0  0  0  0  0  0  0  0  0  0  0  0
    1.2350    0.0091   -0.0748 C   0  0  0  0  0  0  0  0  0  0  0  0
    2.5016   -0.7492   -0.0156 C   0  0  0  0  0  0  0  0  0  0  0  0
    1.2818    1.4132   -0.0275 C   0  0  0  0  0  0  0  0  0  0  0  0
    3.7242   -0.0543    0.0871 C   0  0  0  0  0  0  0  0  0  0  0  0
   -0.0351   -0.5864   -0.1768 C   0  0  0  0  0  0  0  0  0  0  0  0
   -1.2005    0.1863   -0.2289 C   0  0  0  0  0  0  0  0  0  0  0  0
    0.1176    2.1906   -0.0795 C   0  0  0  0  0  0  0  0  0  0  0  0
    3.7397    1.4311    0.1353 C   0  0  0  0  0  0  0  0  0  0  0  0
   -1.1244    1.5736   -0.1803 C   0  0  0  0  0  0  0  0  0  0  0  0
    2.5641   -2.1547   -0.0565 C   0  0  0  0  0  0  0  0  0  0  0  0
    4.9493   -0.7364    0.1458 C   0  0  0  0  0  0  0  0  0  0  0  0
   -4.8040   -0.8937   -0.5005 C   0  0  0  0  0  0  0  0  0  0  0  0
    3.7848   -2.8347    0.0021 C   0  0  0  0  0  0  0  0  0  0  0  0
   -3.7151    0.1600   -0.3956 C   0  0  0  0  0  0  0  0  0  0  0  0
    4.9757   -2.1264    0.1031 C   0  0  0  0  0  0  0  0  0  0  0  0
   -5.7851   -0.0982    1.5433 C   0  0  0  0  0  0  0  0  0  0  0  0
   -7.1070   -1.3698   -0.0085 C   0  0  0  0  0  0  0  0  0  0  0  0
  1 13  2  0
  2 19  2  0
  3  8  1  0
  3 13  1  0
  4 11  1  0
  4 19  1  0
  5 17  1  0
  5 21  1  0
  5 22  1  0
  6  7  1  0
  6  8  2  0
  6 10  1  0
  7  9  2  0
  7 15  1  0
  8 12  1  0
  9 13  1  0
  9 16  1  0
 10 11  2  0
 11 14  1  0
 12 14  2  0
 15 18  2  0
 16 20  2  0
 17 19  1  0
 18 20  1  0
M  END
>  <PUBCHEM_COMPOUND_CID>  (1) 
4858

>  <PUBCHEM_CONFORMER_RMSD>  (1) 
0.6

>  <PUBCHEM_CONFORMER_DIVERSEORDER>  (1) 
1
3
6
5
2
4
8
7

>  <PUBCHEM_MMFF94_PARTIAL_CHARGES>  (1) 
29
1 -0.57
10 -0.15
11 0.12
12 -0.15
13 0.54
14 -0.15
15 -0.15
16 -0.15
17 0.33
18 -0.15
19 0.57
2 -0.57
20 -0.15
21 0.27
22 0.27
23 0.15
24 0.37
25 0.15
26 0.15
27 0.15
28 0.15
29 0.37
3 -0.55
32 0.15
33 0.15
4 -0.55
5 -0.81
8 0.12
9 0.09

>  <PUBCHEM_EFFECTIVE_ROTOR_COUNT>  (1) 
4

>  <PUBCHEM_PHARMACOPHORE_FEATURES>  (1) 
8
1 1 acceptor
1 2 acceptor
1 3 donor
1 4 donor
1 5 cation
6 3 6 7 8 9 13 rings
6 6 8 10 11 12 14 rings
6 7 9 15 16 18 20 rings

>  <PUBCHEM_HEAVY_ATOM_COUNT>  (1) 
22

>  <PUBCHEM_ATOM_DEF_STEREO_COUNT>  (1) 
0

>  <PUBCHEM_ATOM_UDEF_STEREO_COUNT>  (1) 
0

>  <PUBCHEM_BOND_DEF_STEREO_COUNT>  (1) 
0

>  <PUBCHEM_BOND_UDEF_STEREO_COUNT>  (1) 
0

>  <PUBCHEM_ISOTOPIC_ATOM_COUNT>  (1) 
0

>  <PUBCHEM_COMPONENT_COUNT>  (1) 
1

>  <PUBCHEM_CACTVS_TAUTO_COUNT>  (1) 
4

>  <PUBCHEM_CONFORMER_ID>  (1) 
000012FA00000001

>  <PUBCHEM_MMFF94_ENERGY>  (1) 
72.5075

>  <PUBCHEM_FEATURE_SELFOVERLAP>  (1) 
40.641

>  <PUBCHEM_SHAPE_FINGERPRINT>  (1) 
10411042 1 18194964042287952654
10967382 1 18411132559445833916
11963148 33 18189892200453267498
12107183 9 17911247109385081665
12236239 1 17989210356627474771
12596602 18 17632298995083955803
12616971 3 17917703604571335647
12730499 353 18337394937062379952
13073987 5 18413671305555534401
13533116 47 18343865532399472257
13540713 4 18264189336874061948
13685833 64 18334297574400344051
13785724 45 17769669602388511750
13862211 1 18336262362323107387
13955234 65 18341887533036474480
14341114 176 18409733971801552645
146900 427 17917146199468348056
15196674 1 18410853235525396421
15250474 111 18059561547116448151
15475509 84 17774445966635321889
15483637 11 18048596212005157483
15537594 2 18272651285265506207
17492 89 18195524784137612446
17844677 252 18410578353602969013
19427546 62 18119528984441156416
200 152 18272365347854717152
20028762 73 18272368650806855351
20645477 70 18335698334680593102
21033650 10 16081930308960904237
21065198 48 18201444670979534041
21130935 74 18342177782805749259
21197605 99 18340490087864880991
21267235 1 18341054025997611046
21279426 13 18263075535947718277
21623969 137 18334299794545099355
21682296 61 18337959991587089211
21792934 111 18341600483039317073
221490 88 18336826386281811020
23522609 53 18123503572335411557
23559900 14 18337945710836303496
239999 70 17967814963941342642
3004659 81 18186800253770312894
314194 84 18342734139662253855
33824 294 18409444800196039818
3421961 26 18411696569718094210
345986 75 17987794103445323082
350125 39 18340204099277741228
4073 2 18115592681131770939
4214541 1 18338795611749673597
42630746 31 18412824716103816204
46194498 28 17458343082393451693
465052 167 18343303647730296446
5104073 3 18341889636963924681
542803 24 17131836486513332393
5758199 1 18200592639652187168
8863177 126 18114194076693008971
9709674 26 18334576845393998658

>  <PUBCHEM_SHAPE_MULTIPOLES>  (1) 
426.07
14.87
2.55
0.75
21.9
0.15
0.16
6.81
2.03
-3.38
-0.01
0.74
0.03
0.1

>  <PUBCHEM_SHAPE_SELFOVERLAP>  (1) 
927.265

>  <PUBCHEM_SHAPE_VOLUME>  (1) 
231.5

>  <PUBCHEM_COORDINATE_TYPE>  (1) 
2
5
10

$$$$
