48583
     RDKit          3D

 21 22  0  0  0  0  0  0  0  0999 V2000
    2.2845    0.3064   -1.8568 O   0  0  0  0  0  0  0  0  0  0  0  0
   -0.5785    0.3702    1.8647 O   0  0  0  0  0  0  0  0  0  0  0  0
    1.3620    4.2344    0.3289 O   0  0  0  0  0  0  0  0  0  0  0  0
    1.7439    2.2822   -0.8238 N   0  0  0  0  0  0  0  0  0  0  0  0
    0.3143    2.3139    1.0356 N   0  0  0  0  0  0  0  0  0  0  0  0
    0.3731    0.2999   -0.3645 C   0  0  0  0  0  0  0  0  0  0  0  0
   -0.8391    0.4591   -1.2996 C   0  0  0  0  0  0  0  0  0  0  0  0
    0.6419   -1.1940   -0.1321 C   0  0  0  0  0  0  0  0  0  0  0  0
    1.5689    0.9290   -1.0725 C   0  0  0  0  0  0  0  0  0  0  0  0
    0.0064    0.9638    0.9590 C   0  0  0  0  0  0  0  0  0  0  0  0
   -2.0751   -0.1321   -0.6901 C   0  0  0  0  0  0  0  0  0  0  0  0
    1.9228   -1.3939    0.6146 C   0  0  0  0  0  0  0  0  0  0  0  0
    1.1417    3.0312    0.1799 C   0  0  0  0  0  0  0  0  0  0  0  0
    2.7874   -2.4203    0.5041 C   0  0  0  0  0  0  0  0  0  0  0  0
   -2.3871   -1.4676   -0.9224 C   0  0  0  0  0  0  0  0  0  0  0  0
   -2.8994    0.6594    0.1028 C   0  0  0  0  0  0  0  0  0  0  0  0
   -3.5367   -2.0177   -0.3555 C   0  0  0  0  0  0  0  0  0  0  0  0
   -4.0489    0.1091    0.6697 C   0  0  0  0  0  0  0  0  0  0  0  0
    4.0626   -2.5646    1.2853 C   0  0  0  0  0  0  0  0  0  0  0  0
    2.5230   -3.5392   -0.4680 C   0  0  0  0  0  0  0  0  0  0  0  0
   -4.3675   -1.2295    0.4406 C   0  0  0  0  0  0  0  0  0  0  0  0
  1  9  2  0
  2 10  2  0
  3 13  2  0
  4  9  1  0
  4 13  1  0
  5 10  1  0
  5 13  1  0
  6  7  1  0
  6  8  1  0
  6  9  1  0
  6 10  1  0
  7 11  1  0
  8 12  1  0
 11 15  2  0
 11 16  1  0
 12 14  2  3
 14 19  1  0
 14 20  1  0
 15 17  1  0
 16 18  2  0
 17 21  2  0
 18 21  1  0
M  END
>  <PUBCHEM_COMPOUND_CID>  (1) 
48583

>  <PUBCHEM_CONFORMER_RMSD>  (1) 
0.8

>  <PUBCHEM_CONFORMER_DIVERSEORDER>  (1) 
1
3
16
12
10
20
2
7
9
8
11
18
5
19
17
15
14
13
6
4

>  <PUBCHEM_MMFF94_PARTIAL_CHARGES>  (1) 
29
1 -0.57
10 0.57
11 -0.14
12 -0.29
13 0.69
14 -0.28
15 -0.15
16 -0.15
17 -0.15
18 -0.15
19 0.14
2 -0.57
20 0.14
21 -0.15
26 0.15
27 0.37
28 0.37
29 0.15
3 -0.57
30 0.15
31 0.15
32 0.15
39 0.15
4 -0.49
5 -0.49
6 0.12
7 0.14
8 0.14
9 0.57

>  <PUBCHEM_EFFECTIVE_ROTOR_COUNT>  (1) 
4.6

>  <PUBCHEM_PHARMACOPHORE_FEATURES>  (1) 
8
1 1 acceptor
1 2 acceptor
1 3 acceptor
1 4 donor
1 5 donor
3 14 19 20 hydrophobe
6 11 15 16 17 18 21 rings
6 4 5 6 9 10 13 rings

>  <PUBCHEM_HEAVY_ATOM_COUNT>  (1) 
21

>  <PUBCHEM_ATOM_DEF_STEREO_COUNT>  (1) 
0

>  <PUBCHEM_ATOM_UDEF_STEREO_COUNT>  (1) 
0

>  <PUBCHEM_BOND_DEF_STEREO_COUNT>  (1) 
0

>  <PUBCHEM_BOND_UDEF_STEREO_COUNT>  (1) 
0

>  <PUBCHEM_ISOTOPIC_ATOM_COUNT>  (1) 
0

>  <PUBCHEM_COMPONENT_COUNT>  (1) 
1

>  <PUBCHEM_CACTVS_TAUTO_COUNT>  (1) 
5

>  <PUBCHEM_CONFORMER_ID>  (1) 
0000BDC700000001

>  <PUBCHEM_MMFF94_ENERGY>  (1) 
62.392

>  <PUBCHEM_FEATURE_SELFOVERLAP>  (1) 
40.636

>  <PUBCHEM_SHAPE_FINGERPRINT>  (1) 
11265709 11 18265054639370804522
11578080 2 18188474784083603124
12553582 1 18340769230341592662
12592029 89 18264767851704191232
12788726 201 18046920272810323314
13004483 165 17976529525140915587
13132413 78 18343292652597843208
13140716 1 17904198479304182874
13533116 47 18335423521779063571
13955234 65 18264489658224815683
14787075 74 18186237334187903802
15230672 131 16176801412420161214
15375462 189 18411146848137590879
16945 1 18338512044865206205
17980427 26 18125432261759003732
1813 80 18263365793695056326
19078846 21 18202011997261809401
19765921 60 17697883918387224409
201361 129 18197223752913945225
20600515 1 17986672571657402337
21041028 32 18337107843725023125
21421861 104 18341062864407069833
21452121 199 18335969896577522098
21452121 71 18338235968767901026
21524375 3 17624692749304474693
22112679 90 18125742096594211968
2255824 54 18266744768899019300
23419403 2 17680388313646725708
23557571 272 18049150074055057238
23559900 14 18338784702701507691
25 1 17626396975221628221
394222 165 18057614371677626249
458136 41 18045510965017315957
6442390 28 17544769279330499923
7097593 13 18412265025904257831
7364860 26 18337668719246358694
81228 2 17689421699084870630

>  <PUBCHEM_SHAPE_MULTIPOLES>  (1) 
404.6
6.37
4.07
1.35
3.15
2.57
0.03
-6.36
-1.26
-3.78
-0.36
-0.4
0.12
-0.85

>  <PUBCHEM_SHAPE_SELFOVERLAP>  (1) 
859.554

>  <PUBCHEM_SHAPE_VOLUME>  (1) 
222.4

>  <PUBCHEM_COORDINATE_TYPE>  (1) 
2
5
10

$$$$
