48593
     RDKit          3D

 18 19  0  0  1  0  0  0  0  0999 V2000
    1.4004    3.4692    0.0273 Br  0  0  0  0  0  0  0  0  0  0  0  0
   -0.6049   -1.9290    1.3873 O   0  0  0  0  0  0  0  0  0  0  0  0
    0.7430    1.0828   -1.9537 O   0  0  0  0  0  0  0  0  0  0  0  0
    3.7944   -1.6511    0.1130 O   0  0  0  0  0  0  0  0  0  0  0  0
    1.6073   -1.7184    0.8181 N   0  0  0  0  0  0  0  0  0  0  0  0
    2.2809   -0.2135   -0.8504 N   0  0  0  0  0  0  0  0  0  0  0  0
    0.0391    0.0327    0.1155 C   0  0  0  0  0  0  0  0  0  0  0  0
   -1.3828    0.0698   -0.4247 C   0  0  0  0  0  0  0  0  0  0  0  0
   -1.6870   -1.1194   -1.3478 C   0  0  0  0  0  0  0  0  0  0  0  0
    0.2086    1.1342    1.1772 C   0  0  0  0  0  0  0  0  0  0  0  0
   -3.1431   -1.5001   -1.0783 C   0  0  0  0  0  0  0  0  0  0  0  0
   -2.4232   -0.0804    0.6422 C   0  0  0  0  0  0  0  0  0  0  0  0
    0.2847   -1.3015    0.8131 C   0  0  0  0  0  0  0  0  0  0  0  0
    1.0205    0.3426   -1.0103 C   0  0  0  0  0  0  0  0  0  0  0  0
   -3.3848   -0.9351    0.2806 C   0  0  0  0  0  0  0  0  0  0  0  0
   -0.0838    2.4998    0.6302 C   0  0  0  0  0  0  0  0  0  0  0  0
    2.6450   -1.2129    0.0441 C   0  0  0  0  0  0  0  0  0  0  0  0
   -1.3141    3.0303    0.6166 C   0  0  0  0  0  0  0  0  0  0  0  0
  1 16  1  0
  2 13  2  0
  3 14  2  0
  4 17  2  0
  5 13  1  0
  5 17  1  0
  6 14  1  0
  6 17  1  0
  7  8  1  0
  7 10  1  0
  7 13  1  0
  7 14  1  0
  8  9  1  0
  8 12  1  0
  9 11  1  0
 10 16  1  0
 11 15  1  0
 12 15  2  0
 16 18  2  0
M  END
>  <PUBCHEM_COMPOUND_CID>  (1) 
48593

>  <PUBCHEM_CONFORMER_RMSD>  (1) 
0.6

>  <PUBCHEM_CONFORMER_DIVERSEORDER>  (1) 
1
16
18
24
3
8
21
17
19
15
6
4
22
14
9
7
13
20
5
10
25
11
12
2
23

>  <PUBCHEM_MMFF94_PARTIAL_CHARGES>  (1) 
23
1 -0.11
10 0.14
11 0.14
12 -0.29
13 0.57
14 0.57
15 -0.29
16 -0.03
17 0.69
18 -0.3
2 -0.57
26 0.15
27 0.15
28 0.37
29 0.37
3 -0.57
30 0.15
31 0.15
4 -0.57
5 -0.49
6 -0.49
7 0.12
8 0.14

>  <PUBCHEM_EFFECTIVE_ROTOR_COUNT>  (1) 
4.2

>  <PUBCHEM_PHARMACOPHORE_FEATURES>  (1) 
8
1 1 hydrophobe
1 2 acceptor
1 3 acceptor
1 4 acceptor
1 5 donor
1 6 donor
5 8 9 11 12 15 rings
6 5 6 7 13 14 17 rings

>  <PUBCHEM_HEAVY_ATOM_COUNT>  (1) 
18

>  <PUBCHEM_ATOM_DEF_STEREO_COUNT>  (1) 
0

>  <PUBCHEM_ATOM_UDEF_STEREO_COUNT>  (1) 
1

>  <PUBCHEM_BOND_DEF_STEREO_COUNT>  (1) 
0

>  <PUBCHEM_BOND_UDEF_STEREO_COUNT>  (1) 
0

>  <PUBCHEM_ISOTOPIC_ATOM_COUNT>  (1) 
0

>  <PUBCHEM_COMPONENT_COUNT>  (1) 
1

>  <PUBCHEM_CACTVS_TAUTO_COUNT>  (1) 
5

>  <PUBCHEM_CONFORMER_ID>  (1) 
0000BDD100000001

>  <PUBCHEM_MMFF94_ENERGY>  (1) 
57.131

>  <PUBCHEM_FEATURE_SELFOVERLAP>  (1) 
40.636

>  <PUBCHEM_SHAPE_FINGERPRINT>  (1) 
11578080 2 18188469312253135044
12423570 1 12206514329153614613
13132413 78 18411982425245338401
13464514 151 18124039185037764909
14142880 1 17973156232573407956
14181834 199 17898832789619856520
14617773 55 18264502701813503524
14761567 1 17972909091169525420
14817 1 11821557192060545172
15852999 172 17322366647074694815
15906896 17 18050018692234670369
16945 1 18335698403015025934
20361792 2 18201146720059967455
20905425 154 18059015115264225089
21041028 32 18410864252411728073
21296965 67 18341608200641626603
21524375 3 17329407953967438217
22112679 90 18199768988819014977
23402539 116 18339635647265641294
23419403 2 18046874243682891620
23559900 14 17698152951751371170
23598291 2 17845099643812771263
25 1 17907581680973054733
2748010 2 18197752488836217937
474 4 17836081552415810153
528886 8 17313940814577316135
5845 1 11680287548772693024
7364860 26 18196365051280354415
7471813 234 18271508875958032245
81228 2 18126836097742056721

>  <PUBCHEM_SHAPE_MULTIPOLES>  (1) 
348.8
4.26
3.34
1.34
2.05
2.35
0.3
-1.79
0.66
-2.86
-0.79
0.16
-0.15
-0.39

>  <PUBCHEM_SHAPE_SELFOVERLAP>  (1) 
733.401

>  <PUBCHEM_SHAPE_VOLUME>  (1) 
198.3

>  <PUBCHEM_COORDINATE_TYPE>  (1) 
2
5
10

$$$$
