48594
     RDKit          3D

 19 20  0  0  1  0  0  0  0  0999 V2000
   -1.4031   -3.3577    0.2652 Br  0  0  0  0  0  0  0  0  0  0  0  0
   -0.6882   -0.9492   -1.8799 O   0  0  0  0  0  0  0  0  0  0  0  0
    0.9969    1.9705    1.2953 O   0  0  0  0  0  0  0  0  0  0  0  0
   -3.5202    1.7907    0.5815 O   0  0  0  0  0  0  0  0  0  0  0  0
   -2.1818    0.2592   -0.5650 N   0  0  0  0  0  0  0  0  0  0  0  0
   -1.2678    1.8120    0.9661 N   0  0  0  0  0  0  0  0  0  0  0  0
    0.1542   -0.0065    0.1762 C   0  0  0  0  0  0  0  0  0  0  0  0
    1.5346   -0.1439   -0.4489 C   0  0  0  0  0  0  0  0  0  0  0  0
    1.8482    0.9983   -1.4267 C   0  0  0  0  0  0  0  0  0  0  0  0
   -0.0071   -1.0720    1.2754 C   0  0  0  0  0  0  0  0  0  0  0  0
    3.3380    1.2988   -1.2593 C   0  0  0  0  0  0  0  0  0  0  0  0
    2.6472   -0.0259    0.5467 C   0  0  0  0  0  0  0  0  0  0  0  0
   -0.9201   -0.2724   -0.8767 C   0  0  0  0  0  0  0  0  0  0  0  0
    0.0336    1.3547    0.8412 C   0  0  0  0  0  0  0  0  0  0  0  0
    3.6320    0.7591    0.0994 C   0  0  0  0  0  0  0  0  0  0  0  0
    0.1703   -2.4635    0.7461 C   0  0  0  0  0  0  0  0  0  0  0  0
   -2.4102    1.3031    0.3524 C   0  0  0  0  0  0  0  0  0  0  0  0
   -3.3212   -0.1900   -1.3564 C   0  0  0  0  0  0  0  0  0  0  0  0
    1.3648   -3.0654    0.6676 C   0  0  0  0  0  0  0  0  0  0  0  0
  1 16  1  0
  2 13  2  0
  3 14  2  0
  4 17  2  0
  5 13  1  0
  5 17  1  0
  5 18  1  0
  6 14  1  0
  6 17  1  0
  7  8  1  0
  7 10  1  0
  7 13  1  0
  7 14  1  0
  8  9  1  0
  8 12  1  0
  9 11  1  0
 10 16  1  0
 11 15  1  0
 12 15  2  0
 16 19  2  0
M  END
>  <PUBCHEM_COMPOUND_CID>  (1) 
48594

>  <PUBCHEM_CONFORMER_RMSD>  (1) 
0.6

>  <PUBCHEM_CONFORMER_DIVERSEORDER>  (1) 
2
24
40
38
29
22
26
36
10
7
6
37
16
27
44
17
13
12
30
23
4
34
15
11
5
39
9
18
35
1
42
21
3
33
43
31
19
25
32
41
14
20
8
28

>  <PUBCHEM_MMFF94_PARTIAL_CHARGES>  (1) 
23
1 -0.11
10 0.14
11 0.14
12 -0.29
13 0.57
14 0.57
15 -0.29
16 -0.03
17 0.69
18 0.3
19 -0.3
2 -0.57
27 0.15
28 0.15
29 0.37
3 -0.57
33 0.15
34 0.15
4 -0.57
5 -0.42
6 -0.49
7 0.12
8 0.14

>  <PUBCHEM_EFFECTIVE_ROTOR_COUNT>  (1) 
4.2

>  <PUBCHEM_PHARMACOPHORE_FEATURES>  (1) 
7
1 1 hydrophobe
1 2 acceptor
1 3 acceptor
1 4 acceptor
1 6 donor
5 8 9 11 12 15 rings
6 5 6 7 13 14 17 rings

>  <PUBCHEM_HEAVY_ATOM_COUNT>  (1) 
19

>  <PUBCHEM_ATOM_DEF_STEREO_COUNT>  (1) 
0

>  <PUBCHEM_ATOM_UDEF_STEREO_COUNT>  (1) 
2

>  <PUBCHEM_BOND_DEF_STEREO_COUNT>  (1) 
0

>  <PUBCHEM_BOND_UDEF_STEREO_COUNT>  (1) 
0

>  <PUBCHEM_ISOTOPIC_ATOM_COUNT>  (1) 
0

>  <PUBCHEM_COMPONENT_COUNT>  (1) 
1

>  <PUBCHEM_CACTVS_TAUTO_COUNT>  (1) 
3

>  <PUBCHEM_CONFORMER_ID>  (1) 
0000BDD200000002

>  <PUBCHEM_MMFF94_ENERGY>  (1) 
57.2681

>  <PUBCHEM_FEATURE_SELFOVERLAP>  (1) 
35.522

>  <PUBCHEM_SHAPE_FINGERPRINT>  (1) 
104564 63 18044951309140774338
10863032 1 18335422400064040218
12173636 292 18262810695036479556
12423570 1 9900508420489136666
12592029 89 17313366916694150746
12716301 132 17975113650553766610
12788726 201 17976274739206857694
13132413 78 17401769618646499158
14115302 16 18262512710310685692
14817 1 14658265847045887891
15309172 13 17821730537423207308
15490181 8 18261963955134747234
15775835 57 18342459192635166169
15906896 17 18340497779813029055
16752209 62 18044933725861071426
16945 1 17989203797563684317
1813 80 17545883728586051774
18186145 218 18334297539528779564
19765921 60 18341903939315724641
20510252 161 18048040958542459418
20645476 183 18337122227681533900
22112679 90 17700953484453300765
22802520 49 17913489326678349057
23388829 49 17836073477439197162
23419403 2 17127326456966843515
23557571 272 17760933244256414916
23558518 356 18129372877574438969
23559900 14 18342457076318556688
298252 57 17775004561638869757
305870 269 18263647264334107956
3250762 1 17545876491623614976
430814 3 18335140864709757255
4340502 62 18116169804872765121
576247 118 17475535235394946422
5845 1 11983001946279315090
7364860 26 17977668610596895547
81228 2 17755872165951976266
8272917 22 18046632205296222497

>  <PUBCHEM_SHAPE_MULTIPOLES>  (1) 
369.38
4.74
3.15
1.44
1.19
3.03
0.34
-2.32
1.2
-1.54
-1.03
-0.08
-0.32
-0.6

>  <PUBCHEM_SHAPE_SELFOVERLAP>  (1) 
774.669

>  <PUBCHEM_SHAPE_VOLUME>  (1) 
211.7

>  <PUBCHEM_COORDINATE_TYPE>  (1) 
2
5
10

$$$$
