486
     RDKit          3D

 11 10  0  0  0  0  0  0  0  0999 V2000
    2.5763    0.0218   -0.1020 S   0  0  0  0  0  0  0  0  0  0  0  0
    1.1311   -0.0498    0.6582 O   0  0  0  0  0  0  0  0  0  0  0  0
    3.6500   -0.2837    1.0876 O   0  0  0  0  0  0  0  0  0  0  0  0
    2.6336   -1.0861   -1.0373 O   0  0  0  0  0  0  0  0  0  0  0  0
    2.7979    1.3790   -0.5652 O   0  0  0  0  0  0  0  0  0  0  0  0
   -2.5439   -0.0032    0.0114 N   0  0  0  0  0  0  0  0  0  0  0  0
   -1.2630   -0.0556    0.8316 C   0  0  0  0  0  0  0  0  0  0  0  0
   -2.5547   -1.1521   -0.9867 C   0  0  0  0  0  0  0  0  0  0  0  0
   -3.7448   -0.1250    0.9383 C   0  0  0  0  0  0  0  0  0  0  0  0
   -2.6132    1.3199   -0.7375 C   0  0  0  0  0  0  0  0  0  0  0  0
   -0.0692    0.0349   -0.0984 C   0  0  0  0  0  0  0  0  0  0  0  0
  1  2  1  0
  1  3  1  0
  1  4  2  0
  1  5  2  0
  2 11  1  0
  6  7  1  0
  6  8  1  0
  6  9  1  0
  6 10  1  0
  7 11  1  0
M  CHG  1   6   1
M  END
>  <PUBCHEM_COMPOUND_CID>  (1) 
486

>  <PUBCHEM_CONFORMER_RMSD>  (1) 
0.6

>  <PUBCHEM_CONFORMER_DIVERSEORDER>  (1) 
1
2
4
3
5

>  <PUBCHEM_MMFF94_PARTIAL_CHARGES>  (1) 
12
1 1.67
10 0.5
11 0.28
2 -0.46
25 0.5
3 -0.68
4 -0.65
5 -0.65
6 -1.01
7 0.5
8 0.5
9 0.5

>  <PUBCHEM_EFFECTIVE_ROTOR_COUNT>  (1) 
4

>  <PUBCHEM_PHARMACOPHORE_FEATURES>  (1) 
5
1 3 acceptor
1 4 acceptor
1 5 acceptor
1 6 cation
4 1 3 4 5 anion

>  <PUBCHEM_HEAVY_ATOM_COUNT>  (1) 
11

>  <PUBCHEM_ATOM_DEF_STEREO_COUNT>  (1) 
0

>  <PUBCHEM_ATOM_UDEF_STEREO_COUNT>  (1) 
0

>  <PUBCHEM_BOND_DEF_STEREO_COUNT>  (1) 
0

>  <PUBCHEM_BOND_UDEF_STEREO_COUNT>  (1) 
0

>  <PUBCHEM_ISOTOPIC_ATOM_COUNT>  (1) 
0

>  <PUBCHEM_COMPONENT_COUNT>  (1) 
1

>  <PUBCHEM_CACTVS_TAUTO_COUNT>  (1) 
1

>  <PUBCHEM_CONFORMER_ID>  (1) 
000001E600000001

>  <PUBCHEM_MMFF94_ENERGY>  (1) 
23.9144

>  <PUBCHEM_FEATURE_SELFOVERLAP>  (1) 
25.43

>  <PUBCHEM_SHAPE_FINGERPRINT>  (1) 
11062470 55 15267342916065777595
12162725 195 18113615690099182332
12932764 1 18411696590944978433
14144814 61 17313101938665750816
14325111 11 17385724694475502265
14390081 3 17675924304621746517
18186145 218 17988929946333317566
190213 19 18201722842646138131
20279233 1 15841552989468165990
20645477 56 18272928293861662289
20645477 70 13038919789066111236
20653085 51 18335708182982807985
21028194 46 16225764120727849547
22169311 21 17774994670334663078
3248919 1 18131912663070394982

>  <PUBCHEM_SHAPE_MULTIPOLES>  (1) 
201.77
6.95
1.13
1.12
1.67
0.2
0.02
-0.08
0.54
-0.13
-0.41
-0.15
-0.15
-0.01

>  <PUBCHEM_SHAPE_SELFOVERLAP>  (1) 
359.538

>  <PUBCHEM_SHAPE_VOLUME>  (1) 
134.1

>  <PUBCHEM_COORDINATE_TYPE>  (1) 
2
5
10

$$$$
