4860
     RDKit          3D

 22 21  0  0  0  0  0  0  0  0999 V2000
    0.8555    0.3830    1.7452 O   0  0  0  0  0  0  0  0  0  0  0  0
   -6.8984   -1.3605   -1.5874 O   0  0  0  0  0  0  0  0  0  0  0  0
    1.0112    3.0884   -0.1677 C   0  0  0  0  0  0  0  0  0  0  0  0
    2.4882    2.7257    0.0465 C   0  0  0  0  0  0  0  0  0  0  0  0
    0.0080    2.0108    0.1962 C   0  0  0  0  0  0  0  0  0  0  0  0
   -1.9654    0.4731   -0.3691 C   0  0  0  0  0  0  0  0  0  0  0  0
    3.9151    0.6972   -0.6168 C   0  0  0  0  0  0  0  0  0  0  0  0
    4.3812   -0.3531   -1.6034 C   0  0  0  0  0  0  0  0  0  0  0  0
    2.9704    1.6272   -0.8612 C   0  0  0  0  0  0  0  0  0  0  0  0
   -0.9348    1.5343   -0.6420 C   0  0  0  0  0  0  0  0  0  0  0  0
   -3.2721    1.0963    0.1416 C   0  0  0  0  0  0  0  0  0  0  0  0
    4.2796   -1.7942   -1.0853 C   0  0  0  0  0  0  0  0  0  0  0  0
    0.0336    1.5349    1.6298 C   0  0  0  0  0  0  0  0  0  0  0  0
   -4.3628    0.0656    0.3628 C   0  0  0  0  0  0  0  0  0  0  0  0
    4.6292    0.6851    0.7109 C   0  0  0  0  0  0  0  0  0  0  0  0
    2.8590   -2.2358   -0.8671 C   0  0  0  0  0  0  0  0  0  0  0  0
   -4.0495   -1.0004    1.3767 C   0  0  0  0  0  0  0  0  0  0  0  0
   -5.5049    0.1305   -0.3487 C   0  0  0  0  0  0  0  0  0  0  0  0
    2.2866   -2.6656    0.2734 C   0  0  0  0  0  0  0  0  0  0  0  0
   -6.6761   -0.7999   -0.2999 C   0  0  0  0  0  0  0  0  0  0  0  0
    0.8549   -3.0936    0.4220 C   0  0  0  0  0  0  0  0  0  0  0  0
    3.0915   -2.7488    1.5436 C   0  0  0  0  0  0  0  0  0  0  0  0
  1 13  1  0
  2 20  1  0
  3  4  1  0
  3  5  1  0
  4  9  1  0
  5 10  2  0
  5 13  1  0
  6 10  1  0
  6 11  1  0
  7  8  1  0
  7  9  2  0
  7 15  1  0
  8 12  1  0
 11 14  1  0
 12 16  1  0
 14 17  1  0
 14 18  2  0
 16 19  2  3
 18 20  1  0
 19 21  1  0
 19 22  1  0
M  END
>  <PUBCHEM_COMPOUND_CID>  (1) 
4860

>  <PUBCHEM_CONFORMER_RMSD>  (1) 
1.4

>  <PUBCHEM_CONFORMER_DIVERSEORDER>  (1) 
1
75
9
85
64
61
18
58
102
36
94
41
6
89
76
99
42
79
27
29
100
33
112
86
46
24
39
69
84
11
21
81
113
52
14
15
37
23
56
108
101
51
105
103
4
65
96
68
44
45
106
31
7
91
47
26
88
98
107
48
55
40
38
95
59
110
109
53
67
8
97
17
10
104
50
60
74
30
13
80
43
66
87
19
22
54
63
77
83
12
90
57
93
82
3
92
78
2
111
70
34
73
32
25
62
71
49
28
72
35
5
20
16

>  <PUBCHEM_MMFF94_PARTIAL_CHARGES>  (1) 
28
1 -0.68
10 -0.29
11 0.14
12 0.14
13 0.42
14 -0.28
15 0.14
16 -0.29
17 0.14
18 -0.29
19 -0.28
2 -0.68
20 0.42
21 0.14
22 0.14
3 0.14
31 0.15
32 0.15
4 0.14
42 0.15
46 0.15
47 0.4
5 -0.28
56 0.4
6 0.14
7 -0.28
8 0.14
9 -0.29

>  <PUBCHEM_EFFECTIVE_ROTOR_COUNT>  (1) 
11

>  <PUBCHEM_PHARMACOPHORE_FEATURES>  (1) 
10
1 1 acceptor
1 1 donor
1 15 hydrophobe
1 17 hydrophobe
1 2 acceptor
1 2 donor
3 19 21 22 hydrophobe
4 3 4 5 9 hydrophobe
4 6 10 11 14 hydrophobe
4 7 8 12 16 hydrophobe

>  <PUBCHEM_HEAVY_ATOM_COUNT>  (1) 
22

>  <PUBCHEM_ATOM_DEF_STEREO_COUNT>  (1) 
0

>  <PUBCHEM_ATOM_UDEF_STEREO_COUNT>  (1) 
0

>  <PUBCHEM_BOND_DEF_STEREO_COUNT>  (1) 
0

>  <PUBCHEM_BOND_UDEF_STEREO_COUNT>  (1) 
3

>  <PUBCHEM_ISOTOPIC_ATOM_COUNT>  (1) 
0

>  <PUBCHEM_COMPONENT_COUNT>  (1) 
1

>  <PUBCHEM_CACTVS_TAUTO_COUNT>  (1) 
1

>  <PUBCHEM_CONFORMER_ID>  (1) 
000012FC00000001

>  <PUBCHEM_MMFF94_ENERGY>  (1) 
22.092

>  <PUBCHEM_FEATURE_SELFOVERLAP>  (1) 
50.775

>  <PUBCHEM_SHAPE_FINGERPRINT>  (1) 
10316853 100 18335425720079535211
11014199 57 17472982800761471206
12596602 18 17060624408063427593
13533116 47 18131072679564221777
1361 2 18413390929995726831
14251740 57 17988926626402953190
14251764 30 17346042147393211591
14347332 77 18412259515957329701
14931854 50 18263660506209009678
15003188 105 18262521382092879590
15110567 62 18335709316585174771
15183329 4 18409450246484109821
15324115 91 16153707579073019082
15664445 248 18335423474059831928
17134984 74 18336261344938214543
17492 54 18262540146989124998
19026451 147 18261951826411198514
20567600 247 18272368694098347751
20645477 70 18335982051240426925
22224240 67 18130218376684251288
23559900 14 18334574698717543593
23596394 208 18187359909510049309
238 59 18116172020964749280
3323516 105 18334866004104144632
345986 75 17917431969354358585
463206 1 18411142462796549190
5283384 97 18412823595033118759
5309563 4 18339364063350550908
59682541 52 18261100886378993109
59755656 215 18113614608337051517

>  <PUBCHEM_SHAPE_MULTIPOLES>  (1) 
441.01
13.41
3.71
1.46
24.14
0.82
0.22
6.02
-4.63
-3.96
0.45
-0.36
0.41
-0.47

>  <PUBCHEM_SHAPE_SELFOVERLAP>  (1) 
835.994

>  <PUBCHEM_SHAPE_VOLUME>  (1) 
272.1

>  <PUBCHEM_COORDINATE_TYPE>  (1) 
2
5
10

$$$$
