48613
     RDKit          3D

 28 30  0  0  0  0  0  0  0  0999 V2000
    4.9848   -0.7697   -0.1194 O   0  0  0  0  0  0  0  0  0  0  0  0
   -4.9847   -0.7693    0.1218 O   0  0  0  0  0  0  0  0  0  0  0  0
    5.5958    0.8027   -1.6977 O   0  0  0  0  0  0  0  0  0  0  0  0
   -5.5934    0.8082    1.6959 O   0  0  0  0  0  0  0  0  0  0  0  0
    1.4274   -1.7246   -0.2293 N   0  0  0  0  0  0  0  0  0  0  0  0
   -1.4271   -1.7236    0.2297 N   0  0  0  0  0  0  0  0  0  0  0  0
    7.2262   -0.0648   -0.1494 C   0  0  0  0  0  0  0  0  0  0  0  0
   -7.2260   -0.0645    0.1527 C   0  0  0  0  0  0  0  0  0  0  0  0
    7.1612    0.2409    1.3484 C   0  0  0  0  0  0  0  0  0  0  0  0
    8.2425    0.8083   -0.8882 C   0  0  0  0  0  0  0  0  0  0  0  0
   -7.1632    0.2364   -1.3462 C   0  0  0  0  0  0  0  0  0  0  0  0
   -8.2413    0.8110    0.8901 C   0  0  0  0  0  0  0  0  0  0  0  0
    7.0387    1.7337    1.6498 C   0  0  0  0  0  0  0  0  0  0  0  0
    8.1246    2.2948   -0.5529 C   0  0  0  0  0  0  0  0  0  0  0  0
   -7.0412    1.7282   -1.6526 C   0  0  0  0  0  0  0  0  0  0  0  0
   -8.1241    2.2964    0.5498 C   0  0  0  0  0  0  0  0  0  0  0  0
    8.1275    2.5399    0.9514 C   0  0  0  0  0  0  0  0  0  0  0  0
   -8.1291    2.5367   -0.9553 C   0  0  0  0  0  0  0  0  0  0  0  0
    0.7295   -0.5180    0.2317 C   0  0  0  0  0  0  0  0  0  0  0  0
    0.7296   -2.9298    0.2353 C   0  0  0  0  0  0  0  0  0  0  0  0
   -0.7297   -0.5191   -0.2370 C   0  0  0  0  0  0  0  0  0  0  0  0
   -0.7299   -2.9302   -0.2321 C   0  0  0  0  0  0  0  0  0  0  0  0
    2.8180   -1.7238    0.2207 C   0  0  0  0  0  0  0  0  0  0  0  0
   -2.8182   -1.7244   -0.2183 C   0  0  0  0  0  0  0  0  0  0  0  0
    5.8614    0.0603   -0.7620 C   0  0  0  0  0  0  0  0  0  0  0  0
   -5.8603    0.0628    0.7630 C   0  0  0  0  0  0  0  0  0  0  0  0
    3.6477   -0.7503   -0.6012 C   0  0  0  0  0  0  0  0  0  0  0  0
   -3.6468   -0.7483    0.6016 C   0  0  0  0  0  0  0  0  0  0  0  0
  1 25  1  0
  1 27  1  0
  2 26  1  0
  2 28  1  0
  3 25  2  0
  4 26  2  0
  5 19  1  0
  5 20  1  0
  5 23  1  0
  6 21  1  0
  6 22  1  0
  6 24  1  0
  7  9  1  0
  7 10  1  0
  7 25  1  0
  8 11  1  0
  8 12  1  0
  8 26  1  0
  9 13  1  0
 10 14  1  0
 11 15  1  0
 12 16  1  0
 13 17  1  0
 14 17  1  0
 15 18  1  0
 16 18  1  0
 19 21  1  0
 20 22  1  0
 23 27  1  0
 24 28  1  0
M  END
>  <PUBCHEM_COMPOUND_CID>  (1) 
48613

>  <PUBCHEM_CONFORMER_RMSD>  (1) 
1.2

>  <PUBCHEM_CONFORMER_DIVERSEORDER>  (1) 
1
37
31
48
3
46
42
4
35
27
39
23
38
44
50
26
24
9
5
40
29
6
47
7
32
41
20
19
30
49
33
21
36
16
13
28
15
22
17
10
43
2
18
14
25
45
8
34
12
11

>  <PUBCHEM_MMFF94_PARTIAL_CHARGES>  (1) 
18
1 -0.43
19 0.27
2 -0.43
20 0.27
21 0.27
22 0.27
23 0.27
24 0.27
25 0.66
26 0.66
27 0.28
28 0.28
3 -0.57
4 -0.57
5 -0.81
6 -0.81
7 0.06
8 0.06

>  <PUBCHEM_EFFECTIVE_ROTOR_COUNT>  (1) 
13.6

>  <PUBCHEM_PHARMACOPHORE_FEATURES>  (1) 
7
1 3 acceptor
1 4 acceptor
1 5 cation
1 6 cation
6 5 6 19 20 21 22 rings
6 7 9 10 13 14 17 rings
6 8 11 12 15 16 18 rings

>  <PUBCHEM_HEAVY_ATOM_COUNT>  (1) 
28

>  <PUBCHEM_ATOM_DEF_STEREO_COUNT>  (1) 
0

>  <PUBCHEM_ATOM_UDEF_STEREO_COUNT>  (1) 
0

>  <PUBCHEM_BOND_DEF_STEREO_COUNT>  (1) 
0

>  <PUBCHEM_BOND_UDEF_STEREO_COUNT>  (1) 
0

>  <PUBCHEM_ISOTOPIC_ATOM_COUNT>  (1) 
0

>  <PUBCHEM_COMPONENT_COUNT>  (1) 
1

>  <PUBCHEM_CACTVS_TAUTO_COUNT>  (1) 
1

>  <PUBCHEM_CONFORMER_ID>  (1) 
0000BDE500000001

>  <PUBCHEM_MMFF94_ENERGY>  (1) 
30.4241

>  <PUBCHEM_FEATURE_SELFOVERLAP>  (1) 
35.524

>  <PUBCHEM_SHAPE_FINGERPRINT>  (1) 
10 15 17603868900927540271
11211813 74 18271810090256197348
11386260 185 15339108070455524794
11409948 35 18339647725748049382
11409948 41 15050912815174837900
11456790 92 15213016059797048188
11578821 258 18411420643471034084
125118 31 18335703871162625420
12539765 74 18202284671503248566
12838862 33 18410562990035407233
13248334 5 18122346778829581210
13668630 136 10592045743287941210
14150023 24 18186796976431510203
14216079 64 8070032160095496962
14251757 52 18335419071569855314
15350500 55 18187643575125757183
15461852 350 17203325650351620527
15979999 66 14045738222986771754
16991971 28 10231754495974801814
16994733 274 18334010601169136763
1754908 1 14779267522521139020
1754911 235 17632578244861606548
1768 4 18411992343395190875
17686467 74 18187085096914013331
18335252 114 17275105042431027280
2026 5 9583527515936259029
20982279 24 10447650261473045317
21095123 293 17895202134007053004
21150785 3 15769776853195677647
21585482 310 9223229675884756816
21867018 265 15554160454484052797
23576562 1 16773219825405878481
24771293 8 18334855047552934823
25269216 80 17060043896685371175
3711267 37 18339935865063179841
3918712 181 18413103952901997424
393628 179 18408595964292907477
406291 66 9151174246562963120
4169191 19 18411138009616946817
4403749 210 18335706070344942619
54039377 194 9655571916345544843
5470011 282 12319730380468241738
5758199 1 18411140233840755211
5937810 71 17703800172214880449
6289498 60 18114178631553041264
636775 72 18335702703237995749
636775 8 9871475335448687176
6712543 237 15502376733569733091
9896288 288 11098393933940305743
9961470 85 18056190517168992032
9962374 69 7853561388787606418
999808 66 8718826488076586419

>  <PUBCHEM_SHAPE_MULTIPOLES>  (1) 
542.79
34.83
2.94
1.34
0.01
0.22
0
-32.88
-0.01
0
0
0
-0.72
1.37

>  <PUBCHEM_SHAPE_SELFOVERLAP>  (1) 
1095.594

>  <PUBCHEM_SHAPE_VOLUME>  (1) 
313.5

>  <PUBCHEM_COORDINATE_TYPE>  (1) 
2
5
10

$$$$
