48617
     RDKit          3D

 30 32  0  0  0  0  0  0  0  0999 V2000
    5.0209    0.2954    0.0573 O   0  0  0  0  0  0  0  0  0  0  0  0
   -5.0207   -0.2248    0.1985 O   0  0  0  0  0  0  0  0  0  0  0  0
    5.6735    1.5940   -1.7279 O   0  0  0  0  0  0  0  0  0  0  0  0
   -5.6708   -2.2484   -0.6857 O   0  0  0  0  0  0  0  0  0  0  0  0
    1.4258    0.4797    0.8449 N   0  0  0  0  0  0  0  0  0  0  0  0
   -1.4257    0.0192    0.9700 N   0  0  0  0  0  0  0  0  0  0  0  0
    0.7309    0.3443    2.1310 C   0  0  0  0  0  0  0  0  0  0  0  0
    0.7309   -0.2868   -0.1967 C   0  0  0  0  0  0  0  0  0  0  0  0
   -0.7313    0.7875    2.0105 C   0  0  0  0  0  0  0  0  0  0  0  0
   -0.7315    0.1554   -0.3163 C   0  0  0  0  0  0  0  0  0  0  0  0
    2.8192    0.0541    0.9604 C   0  0  0  0  0  0  0  0  0  0  0  0
   -2.8197    0.4429    0.8551 C   0  0  0  0  0  0  0  0  0  0  0  0
    3.6749    0.7237   -0.1029 C   0  0  0  0  0  0  0  0  0  0  0  0
   -3.6740   -0.6735    0.2762 C   0  0  0  0  0  0  0  0  0  0  0  0
    5.9213    0.8094   -0.8255 C   0  0  0  0  0  0  0  0  0  0  0  0
   -5.9200   -1.1156   -0.3034 C   0  0  0  0  0  0  0  0  0  0  0  0
    7.2836    0.2851   -0.5534 C   0  0  0  0  0  0  0  0  0  0  0  0
   -7.2830   -0.5276   -0.3330 C   0  0  0  0  0  0  0  0  0  0  0  0
    8.3570    0.6875   -1.3481 C   0  0  0  0  0  0  0  0  0  0  0  0
   -8.3557   -1.2778   -0.8151 C   0  0  0  0  0  0  0  0  0  0  0  0
    7.4899   -0.6097    0.4965 C   0  0  0  0  0  0  0  0  0  0  0  0
   -7.4912    0.7749    0.1209 C   0  0  0  0  0  0  0  0  0  0  0  0
    9.8430   -0.7001   -0.0430 C   0  0  0  0  0  0  0  0  0  0  0  0
   -9.8442    0.5768   -0.3895 C   0  0  0  0  0  0  0  0  0  0  0  0
    9.6368    0.1949   -1.0930 C   0  0  0  0  0  0  0  0  0  0  0  0
   -9.6362   -0.7257   -0.8434 C   0  0  0  0  0  0  0  0  0  0  0  0
    8.7697   -1.1024    0.7517 C   0  0  0  0  0  0  0  0  0  0  0  0
   -8.7717    1.3270    0.0925 C   0  0  0  0  0  0  0  0  0  0  0  0
   11.2116   -1.2253    0.2301 C   0  0  0  0  0  0  0  0  0  0  0  0
  -11.2136    1.1662   -0.4189 C   0  0  0  0  0  0  0  0  0  0  0  0
  1 13  1  0
  1 15  1  0
  2 14  1  0
  2 16  1  0
  3 15  2  0
  4 16  2  0
  5  7  1  0
  5  8  1  0
  5 11  1  0
  6  9  1  0
  6 10  1  0
  6 12  1  0
  7  9  1  0
  8 10  1  0
 11 13  1  0
 12 14  1  0
 15 17  1  0
 16 18  1  0
 17 19  2  0
 17 21  1  0
 18 20  2  0
 18 22  1  0
 19 25  1  0
 20 26  1  0
 21 27  2  0
 22 28  2  0
 23 25  2  0
 23 27  1  0
 23 29  1  0
 24 26  2  0
 24 28  1  0
 24 30  1  0
M  END
>  <PUBCHEM_COMPOUND_CID>  (1) 
48617

>  <PUBCHEM_CONFORMER_RMSD>  (1) 
1

>  <PUBCHEM_CONFORMER_DIVERSEORDER>  (1) 
1
35
44
41
50
55
19
22
59
7
56
21
54
38
34
17
12
51
53
45
42
15
14
33
8
16
47
26
36
48
29
18
49
10
30
6
58
39
9
23
25
46
61
43
31
37
20
60
40
13
52
24
2
28
5
57
11
3
27
32
4

>  <PUBCHEM_MMFF94_PARTIAL_CHARGES>  (1) 
38
1 -0.43
10 0.27
11 0.27
12 0.27
13 0.28
14 0.28
15 0.63
16 0.63
17 0.09
18 0.09
19 -0.15
2 -0.43
20 -0.15
21 -0.15
22 -0.15
23 -0.14
24 -0.14
25 -0.15
26 -0.15
27 -0.15
28 -0.15
29 0.14
3 -0.57
30 0.14
4 -0.57
47 0.15
48 0.15
49 0.15
5 -0.81
50 0.15
51 0.15
52 0.15
53 0.15
54 0.15
6 -0.81
7 0.27
8 0.27
9 0.27

>  <PUBCHEM_EFFECTIVE_ROTOR_COUNT>  (1) 
11.2

>  <PUBCHEM_PHARMACOPHORE_FEATURES>  (1) 
7
1 3 acceptor
1 4 acceptor
1 5 cation
1 6 cation
6 17 19 21 23 25 27 rings
6 18 20 22 24 26 28 rings
6 5 6 7 8 9 10 rings

>  <PUBCHEM_HEAVY_ATOM_COUNT>  (1) 
30

>  <PUBCHEM_ATOM_DEF_STEREO_COUNT>  (1) 
0

>  <PUBCHEM_ATOM_UDEF_STEREO_COUNT>  (1) 
0

>  <PUBCHEM_BOND_DEF_STEREO_COUNT>  (1) 
0

>  <PUBCHEM_BOND_UDEF_STEREO_COUNT>  (1) 
0

>  <PUBCHEM_ISOTOPIC_ATOM_COUNT>  (1) 
0

>  <PUBCHEM_COMPONENT_COUNT>  (1) 
1

>  <PUBCHEM_CACTVS_TAUTO_COUNT>  (1) 
1

>  <PUBCHEM_CONFORMER_ID>  (1) 
0000BDE900000001

>  <PUBCHEM_MMFF94_ENERGY>  (1) 
72.326

>  <PUBCHEM_FEATURE_SELFOVERLAP>  (1) 
35.524

>  <PUBCHEM_SHAPE_FINGERPRINT>  (1) 
10 15 12252179680276565793
106641 1 11672064142537061072
10674148 151 18343860039347609163
10883706 142 16805045125569344387
11061554 47 16370718253988993596
11409948 35 15285627757015247320
11828042 206 18343577473270584832
11828042 53 18055917581352682865
12144603 126 18260827077455312315
12522641 33 17676487233301324986
12539745 222 14476973259137620291
12559415 86 17458908124153954455
12643181 29 17346877879931794711
14040221 8 18408323259154086265
14251764 46 18410575080368111623
14428016 86 15719390629114598568
14918687 75 12031779267359072581
15061470 23 18333730225941716284
15065858 18 16558747914480665083
15247644 1 17489872643725577838
15326923 82 15410892972730104016
15510794 2 16917064481928472787
155225 1 14345791647745167535
15706992 2 14057003810597591737
15890870 6 18131632287558775487
16728433 110 14979951480186792106
1754911 235 17240481425029218943
20105231 36 18270402815302429283
21102433 48 17203324494995362662
212700 22 16702304554918510550
21362267 20 12823289100782632677
21792934 111 16487249985284306520
21792961 116 17989490723766438963
232437 2 18410855460133449551
3092352 35 18186802496424048435
33684 2 18272369771612905806
3986486 107 16630522883968416441
3991529 128 11602825688192600406
4017518 198 17060620006471627455
58083652 198 18059584632765845224
58902169 19 18187648067192135478
59521270 166 18341330016580373973
6126387 218 14476968874476689699
9663363 56 16558747905795837224
9937071 3 16343990212516878654
9962374 69 14692560039886504193

>  <PUBCHEM_SHAPE_MULTIPOLES>  (1) 
583.95
47.93
1.34
1.31
0.02
0.51
0.04
-15.37
0.47
0.17
-0.04
-0.18
-0.36
2.4

>  <PUBCHEM_SHAPE_SELFOVERLAP>  (1) 
1221.803

>  <PUBCHEM_SHAPE_VOLUME>  (1) 
331.5

>  <PUBCHEM_COORDINATE_TYPE>  (1) 
2
5
10

$$$$
