48623
     RDKit          3D

 14 13  0  0  0  0  0  0  0  0999 V2000
   -1.5484   -0.4098    0.0429 O   0  0  0  0  0  0  0  0  0  0  0  0
    2.0465    0.1327    0.0027 O   0  0  0  0  0  0  0  0  0  0  0  0
   -5.0801    0.4340    0.1512 O   0  0  0  0  0  0  0  0  0  0  0  0
    5.5225   -0.6540   -0.0390 O   0  0  0  0  0  0  0  0  0  0  0  0
    4.4256    1.3769   -0.0195 O   0  0  0  0  0  0  0  0  0  0  0  0
   -0.3390    0.3388    0.0645 C   0  0  0  0  0  0  0  0  0  0  0  0
    0.8362   -0.6177    0.0018 C   0  0  0  0  0  0  0  0  0  0  0  0
   -2.6867    0.4383    0.0998 C   0  0  0  0  0  0  0  0  0  0  0  0
   -3.9407   -0.4140    0.0737 C   0  0  0  0  0  0  0  0  0  0  0  0
    3.1844   -0.7055   -0.0326 C   0  0  0  0  0  0  0  0  0  0  0  0
    4.4215    0.1535   -0.0295 C   0  0  0  0  0  0  0  0  0  0  0  0
   -6.2359   -0.2723    0.1109 C   0  0  0  0  0  0  0  0  0  0  0  0
    6.7832    0.0237   -0.0366 C   0  0  0  0  0  0  0  0  0  0  0  0
   -7.3890    0.1755   -0.3903 C   0  0  0  0  0  0  0  0  0  0  0  0
  1  6  1  0
  1  8  1  0
  2  7  1  0
  2 10  1  0
  3  9  1  0
  3 12  1  0
  4 11  1  0
  4 13  1  0
  5 11  2  0
  6  7  1  0
  8  9  1  0
 10 11  1  0
 12 14  2  0
M  END
>  <PUBCHEM_COMPOUND_CID>  (1) 
48623

>  <PUBCHEM_CONFORMER_RMSD>  (1) 
0.8

>  <PUBCHEM_CONFORMER_DIVERSEORDER>  (1) 
4
49
42
57
76
55
12
80
85
31
72
28
61
50
66
45
22
17
26
62
8
43
32
70
38
18
15
7
52
29
13
44
77
69
79
60
47
14
78
63
3
58
35
74
9
59
82
40
65
11
73
21
54
25
83
33
48
30
37
81
41
51
67
36
84
1
53
24
6
10
20
64
56
75
2
46
68
27
39
34
16
23
5
71
19

>  <PUBCHEM_MMFF94_PARTIAL_CHARGES>  (1) 
17
1 -0.56
10 0.34
11 0.66
12 -0.07
13 0.28
14 -0.3
2 -0.56
25 0.15
29 0.15
3 -0.36
30 0.15
4 -0.43
5 -0.57
6 0.28
7 0.28
8 0.28
9 0.28

>  <PUBCHEM_EFFECTIVE_ROTOR_COUNT>  (1) 
10

>  <PUBCHEM_PHARMACOPHORE_FEATURES>  (1) 
4
1 1 acceptor
1 2 acceptor
1 3 acceptor
1 5 acceptor

>  <PUBCHEM_HEAVY_ATOM_COUNT>  (1) 
14

>  <PUBCHEM_ATOM_DEF_STEREO_COUNT>  (1) 
0

>  <PUBCHEM_ATOM_UDEF_STEREO_COUNT>  (1) 
0

>  <PUBCHEM_BOND_DEF_STEREO_COUNT>  (1) 
0

>  <PUBCHEM_BOND_UDEF_STEREO_COUNT>  (1) 
0

>  <PUBCHEM_ISOTOPIC_ATOM_COUNT>  (1) 
0

>  <PUBCHEM_COMPONENT_COUNT>  (1) 
1

>  <PUBCHEM_CACTVS_TAUTO_COUNT>  (1) 
1

>  <PUBCHEM_CONFORMER_ID>  (1) 
0000BDEF00000004

>  <PUBCHEM_MMFF94_ENERGY>  (1) 
26.1032

>  <PUBCHEM_FEATURE_SELFOVERLAP>  (1) 
20.307

>  <PUBCHEM_SHAPE_FINGERPRINT>  (1) 
10968037 39 18411699890276446655
12091667 2 18113618985298888779
13533116 47 16950552247541031112
14123256 10 18410855455833194497
1420 363 18333455339433891675
14251764 46 18410855460133462555
14729087 3 16877654644411358845
17834072 33 18060416945523684709
17834076 25 17704071793950628447
20645477 70 18200879453056994958
20767249 213 18410575097547980807
220451 1 13045943520962709593
22224240 67 17346874555210272070
23035841 295 16917348139080996199
23402539 116 18410007758660398087
23521765 1 18342175566064014787
33684 2 18409165502182296202
3545911 37 18260267447126170274
42788 4 18411419509946664777
54446538 1 18272371966405011056
57583515 80 18040155115625271873
8209 1 18410855460133443062

>  <PUBCHEM_SHAPE_MULTIPOLES>  (1) 
258.77
20.58
0.85
0.6
8.97
0.09
0.01
0.77
1.19
-0.54
0
0.14
0
0.04

>  <PUBCHEM_SHAPE_SELFOVERLAP>  (1) 
479.751

>  <PUBCHEM_SHAPE_VOLUME>  (1) 
163.1

>  <PUBCHEM_COORDINATE_TYPE>  (1) 
2
5
10

$$$$
