48678
     RDKit          3D

 27 29  0  0  0  0  0  0  0  0999 V2000
   -0.8671   -0.5329   -0.0280 O   0  0  0  0  0  0  0  0  0  0  0  0
    0.0680    0.9337   -1.5831 O   0  0  0  0  0  0  0  0  0  0  0  0
   -3.4232    0.9743    1.8437 N   0  0  0  0  0  0  0  0  0  0  0  0
   -4.1735    0.3926   -1.2749 N   0  0  0  0  0  0  0  0  0  0  0  0
   -2.8855    1.4168    0.4905 C   0  0  0  0  0  0  0  0  0  0  0  0
   -2.6624   -0.2570    2.3140 C   0  0  0  0  0  0  0  0  0  0  0  0
   -3.2425    2.0987    2.8534 C   0  0  0  0  0  0  0  0  0  0  0  0
   -4.9022    0.6390    1.7171 C   0  0  0  0  0  0  0  0  0  0  0  0
   -3.0238    0.3643   -0.5697 C   0  0  0  0  0  0  0  0  0  0  0  0
   -2.0059   -0.5498   -0.7667 C   0  0  0  0  0  0  0  0  0  0  0  0
    1.3979    0.2127    0.3418 C   0  0  0  0  0  0  0  0  0  0  0  0
    1.9403   -1.1936    0.5588 C   0  0  0  0  0  0  0  0  0  0  0  0
    2.4898    1.1860   -0.0834 C   0  0  0  0  0  0  0  0  0  0  0  0
    0.1691    0.2641   -0.5627 C   0  0  0  0  0  0  0  0  0  0  0  0
   -2.1804   -1.5060   -1.7610 C   0  0  0  0  0  0  0  0  0  0  0  0
   -4.3074   -0.5520   -2.2327 C   0  0  0  0  0  0  0  0  0  0  0  0
   -3.3503   -1.5140   -2.5126 C   0  0  0  0  0  0  0  0  0  0  0  0
    2.5754   -1.4863    1.7479 C   0  0  0  0  0  0  0  0  0  0  0  0
    3.4511    0.7594   -0.9760 C   0  0  0  0  0  0  0  0  0  0  0  0
    1.7793   -2.1313   -0.4401 C   0  0  0  0  0  0  0  0  0  0  0  0
    2.4829    2.4633    0.4372 C   0  0  0  0  0  0  0  0  0  0  0  0
    3.0720   -2.7746    1.9470 C   0  0  0  0  0  0  0  0  0  0  0  0
    4.4509    1.6506   -1.3655 C   0  0  0  0  0  0  0  0  0  0  0  0
    2.2759   -3.4195   -0.2409 C   0  0  0  0  0  0  0  0  0  0  0  0
    3.4827    3.3545    0.0474 C   0  0  0  0  0  0  0  0  0  0  0  0
    2.9223   -3.7410    0.9527 C   0  0  0  0  0  0  0  0  0  0  0  0
    4.4667    2.9480   -0.8540 C   0  0  0  0  0  0  0  0  0  0  0  0
  1 10  1  0
  1 14  1  0
  2 14  2  0
  3  5  1  0
  3  6  1  0
  3  7  1  0
  3  8  1  0
  4  9  2  0
  4 16  1  0
  5  9  1  0
  9 10  1  0
 10 15  2  0
 11 12  1  0
 11 13  1  0
 11 14  1  0
 12 18  2  0
 12 20  1  0
 13 19  2  0
 13 21  1  0
 15 17  1  0
 16 17  2  0
 18 22  1  0
 19 23  1  0
 20 24  2  0
 21 25  2  0
 22 26  2  0
 23 27  2  0
 24 26  1  0
 25 27  1  0
M  CHG  1   3   1
M  END
>  <PUBCHEM_COMPOUND_CID>  (1) 
48678

>  <PUBCHEM_CONFORMER_RMSD>  (1) 
0.8

>  <PUBCHEM_CONFORMER_DIVERSEORDER>  (1) 
1
195
209
146
194
44
180
160
37
153
17
18
142
65
119
151
173
137
41
166
149
210
115
187
204
102
184
208
85
60
176
125
156
88
15
165
100
70
129
182
150
108
67
175
200
110
32
82
68
76
111
53
134
163
196
189
198
177
84
154
155
54
139
83
130
147
81
203
109
127
69
73
132
202
161
113
64
96
133
74
63
128
144
138
47
174
59
116
199
86
206
51
205
207
158
61
191
167
45
159
135
11
185
186
23
143
157
112
179
201
56
24
192
58
49
164
171
123
152
89
122
190
148
77
79
75
99
107
30
120
121
33
211
188
28
98
7
95
93
212
104
42
105
20
78
48
22
29
172
2
126
118
25
40
14
193
183
145
136
66
141
90
124
106
21
91
170
38
114
43
92
178
162
27
97
4
181
31
62
8
34
117
9
19
50
103
46
197
39
36
71
94
169
72
101
10
55
13
140
52
87
26
80
168
57
131
3
12
6
35
5
16

>  <PUBCHEM_MMFF94_PARTIAL_CHARGES>  (1) 
40
1 -0.23
10 0.08
11 0.35
12 -0.14
13 -0.14
14 0.66
15 -0.15
16 0.16
17 -0.15
18 -0.15
19 -0.15
2 -0.57
20 -0.15
21 -0.15
22 -0.15
23 -0.15
24 -0.15
25 -0.15
26 -0.15
27 -0.15
3 -1.01
4 -0.62
40 0.15
41 0.15
42 0.15
43 0.15
44 0.15
45 0.15
46 0.15
47 0.15
48 0.15
49 0.15
5 0.65
50 0.15
51 0.15
52 0.15
6 0.5
7 0.5
8 0.5
9 0.17

>  <PUBCHEM_EFFECTIVE_ROTOR_COUNT>  (1) 
7

>  <PUBCHEM_PHARMACOPHORE_FEATURES>  (1) 
6
1 2 acceptor
1 3 cation
1 4 acceptor
6 12 18 20 22 24 26 rings
6 13 19 21 23 25 27 rings
6 4 9 10 15 16 17 rings

>  <PUBCHEM_HEAVY_ATOM_COUNT>  (1) 
27

>  <PUBCHEM_ATOM_DEF_STEREO_COUNT>  (1) 
0

>  <PUBCHEM_ATOM_UDEF_STEREO_COUNT>  (1) 
0

>  <PUBCHEM_BOND_DEF_STEREO_COUNT>  (1) 
0

>  <PUBCHEM_BOND_UDEF_STEREO_COUNT>  (1) 
0

>  <PUBCHEM_ISOTOPIC_ATOM_COUNT>  (1) 
0

>  <PUBCHEM_COMPONENT_COUNT>  (1) 
1

>  <PUBCHEM_CACTVS_TAUTO_COUNT>  (1) 
1

>  <PUBCHEM_CONFORMER_ID>  (1) 
0000BE2600000001

>  <PUBCHEM_MMFF94_ENERGY>  (1) 
96.5805

>  <PUBCHEM_FEATURE_SELFOVERLAP>  (1) 
30.446

>  <PUBCHEM_SHAPE_FINGERPRINT>  (1) 
10369192 42 17097522974888811924
10940486 97 17631171883901747782
11049842 53 17059226834068761054
11578080 2 16950855708202167269
12160290 23 16559026070144014149
12549972 3 17023742286873833921
12553582 1 18120936105631950174
12788726 201 17703504497933733919
13009979 54 17988070093696379947
133893 2 18261377941317741958
13533116 47 18261687982543685473
13583140 156 18337688468028368353
15842332 3 18201997707663028751
16752209 62 17060333041967061727
17818456 19 17558825092340114419
1813 80 18123184594178701090
18915476 22 18040716969671170218
20645477 70 18040984125206057310
20693207 138 16661213524961411515
21796203 349 18046646507426977930
22182313 1 16877948221936028619
22849341 161 18124320398137385322
23557571 272 15626210338971112675
23559900 14 18196342919203413727
25147074 1 18201433666782691703
283562 15 17832707155235236034
312423 11 18272928310946566495
38570 142 18127158387914592724
394222 165 17825918658954896138
460360 51 18264765450506294909
469060 322 17316201625591240243
513202 73 17043741110683176678
5895379 119 17632297835268458630
59755656 520 18119828034503020732
633830 44 18269011923722259500
6823239 73 15647346186372214342
70251023 43 17898828202637411311
7615 1 18201990006781268843
81228 2 17037800467011776186
9981440 41 18046043119875909840

>  <PUBCHEM_SHAPE_MULTIPOLES>  (1) 
533.95
9.66
3.93
2.53
4.1
1.41
0.63
-3.92
-0.56
-6.54
0.92
3.28
0.23
-4.06

>  <PUBCHEM_SHAPE_SELFOVERLAP>  (1) 
1145.951

>  <PUBCHEM_SHAPE_VOLUME>  (1) 
293

>  <PUBCHEM_COORDINATE_TYPE>  (1) 
2
5
10

$$$$
