48680
     RDKit          3D

 23 24  0  0  0  0  0  0  0  0999 V2000
   -0.8732    0.3690    0.9912 O   0  0  0  0  0  0  0  0  0  0  0  0
    0.4288    1.2741   -0.6768 O   0  0  0  0  0  0  0  0  0  0  0  0
   -3.0377   -2.1189   -0.2054 N   0  0  0  0  0  0  0  0  0  0  0  0
   -3.8019    0.9146   -1.1226 N   0  0  0  0  0  0  0  0  0  0  0  0
    1.4597   -0.0609    0.9678 N   0  0  0  0  0  0  0  0  0  0  0  0
   -2.3612   -1.0184   -1.0100 C   0  0  0  0  0  0  0  0  0  0  0  0
   -4.5485   -1.9723   -0.3153 C   0  0  0  0  0  0  0  0  0  0  0  0
   -2.6185   -3.4765   -0.7508 C   0  0  0  0  0  0  0  0  0  0  0  0
   -2.6223   -2.0085    1.2546 C   0  0  0  0  0  0  0  0  0  0  0  0
   -2.7199    0.3600   -0.5383 C   0  0  0  0  0  0  0  0  0  0  0  0
   -1.9542    0.9733    0.4354 C   0  0  0  0  0  0  0  0  0  0  0  0
   -2.3263    2.2506    0.8399 C   0  0  0  0  0  0  0  0  0  0  0  0
   -4.1331    2.1567   -0.7040 C   0  0  0  0  0  0  0  0  0  0  0  0
   -3.4352    2.8606    0.2641 C   0  0  0  0  0  0  0  0  0  0  0  0
    0.3722    0.5927    0.3450 C   0  0  0  0  0  0  0  0  0  0  0  0
    2.7930   -0.0494    0.4050 C   0  0  0  0  0  0  0  0  0  0  0  0
    2.9178    0.0291   -0.9567 C   0  0  0  0  0  0  0  0  0  0  0  0
    3.8573   -0.1177    1.2643 C   0  0  0  0  0  0  0  0  0  0  0  0
    1.2551   -0.8482    2.1922 C   0  0  0  0  0  0  0  0  0  0  0  0
    5.3147   -0.0278   -0.6605 C   0  0  0  0  0  0  0  0  0  0  0  0
    4.2026    0.0400   -1.4996 C   0  0  0  0  0  0  0  0  0  0  0  0
    5.1421   -0.1067    0.7214 C   0  0  0  0  0  0  0  0  0  0  0  0
    6.6886   -0.0155   -1.2408 C   0  0  0  0  0  0  0  0  0  0  0  0
  1 11  1  0
  1 15  1  0
  2 15  2  0
  3  6  1  0
  3  7  1  0
  3  8  1  0
  3  9  1  0
  4 10  2  0
  4 13  1  0
  5 15  1  0
  5 16  1  0
  5 19  1  0
  6 10  1  0
 10 11  1  0
 11 12  2  0
 12 14  1  0
 13 14  2  0
 16 17  2  0
 16 18  1  0
 17 21  1  0
 18 22  2  0
 20 21  2  0
 20 22  1  0
 20 23  1  0
M  CHG  1   3   1
M  END
>  <PUBCHEM_COMPOUND_CID>  (1) 
48680

>  <PUBCHEM_CONFORMER_RMSD>  (1) 
0.8

>  <PUBCHEM_CONFORMER_DIVERSEORDER>  (1) 
1
34
37
68
87
36
50
81
92
35
84
58
75
22
40
102
96
61
99
20
10
55
51
79
60
72
85
21
15
31
47
86
26
6
64
93
59
80
76
41
49
62
24
74
82
17
63
9
48
78
89
33
42
88
38
16
3
100
65
73
66
44
19
13
54
30
67
77
101
14
83
95
94
39
28
46
4
29
2
97
91
11
57
90
7
98
56
32
52
8
70
12
69
25
71
23
53
45
27
5
43
18

>  <PUBCHEM_MMFF94_PARTIAL_CHARGES>  (1) 
30
1 -0.23
10 0.17
11 0.08
12 -0.15
13 0.16
14 -0.15
15 0.78
16 0.12
17 -0.15
18 -0.15
19 0.3
2 -0.57
20 -0.14
21 -0.15
22 -0.15
23 0.14
3 -1.01
35 0.15
36 0.15
37 0.15
38 0.15
39 0.15
4 -0.62
43 0.15
44 0.15
5 -0.48
6 0.65
7 0.5
8 0.5
9 0.5

>  <PUBCHEM_EFFECTIVE_ROTOR_COUNT>  (1) 
6

>  <PUBCHEM_PHARMACOPHORE_FEATURES>  (1) 
5
1 2 acceptor
1 3 cation
1 4 acceptor
6 16 17 18 20 21 22 rings
6 4 10 11 12 13 14 rings

>  <PUBCHEM_HEAVY_ATOM_COUNT>  (1) 
23

>  <PUBCHEM_ATOM_DEF_STEREO_COUNT>  (1) 
0

>  <PUBCHEM_ATOM_UDEF_STEREO_COUNT>  (1) 
0

>  <PUBCHEM_BOND_DEF_STEREO_COUNT>  (1) 
0

>  <PUBCHEM_BOND_UDEF_STEREO_COUNT>  (1) 
0

>  <PUBCHEM_ISOTOPIC_ATOM_COUNT>  (1) 
0

>  <PUBCHEM_COMPONENT_COUNT>  (1) 
1

>  <PUBCHEM_CACTVS_TAUTO_COUNT>  (1) 
1

>  <PUBCHEM_CONFORMER_ID>  (1) 
0000BE2800000001

>  <PUBCHEM_MMFF94_ENERGY>  (1) 
95.5849

>  <PUBCHEM_FEATURE_SELFOVERLAP>  (1) 
25.371

>  <PUBCHEM_SHAPE_FINGERPRINT>  (1) 
10366900 7 17489297551693231624
105312 117 18265329517525824797
107951 10 18271247110591797239
11056379 131 18413392054991801991
11089746 13 17821451288189245324
11545043 162 18131353007989879438
11796584 16 18200035032896538390
12236239 1 17967813821464282304
12553582 1 18266163123607644867
12616971 3 17022897918294988456
12714826 92 18201440311155049523
12788726 201 18334568062787577395
13583140 156 17775562027372708668
14251751 93 18410575101859246806
14251757 5 18336549438016462163
15163728 17 17829884335757480413
15183329 4 17094958845607813802
15463212 79 18187076230935592915
16752209 62 18337094748908217259
17349148 13 17385997395414302216
17844677 252 18342178903675882888
17870717 6 18202285788040874173
20511986 3 17749937895744472324
20645476 183 18334570197306935389
20645477 70 15913323542879768692
20681677 155 18339643343377420625
20871999 31 18409448093839824375
21033648 144 16081659992894375118
21033648 29 17059761261249656464
21065201 7 18272645728131589378
22393880 68 18413670210586494734
22849339 104 18342741823216529935
2297311 6 18341614854041937799
23402539 116 17894354376266330916
23557571 272 18273498974671631816
23559900 14 18201708583381654584
25147074 1 17895462644799881962
268830 7 15647043820817176000
34797466 226 18060699520228846624
4015057 19 16629946789895531385
437815 12 17774719883323710651
484985 159 16702310044271972479
4921388 177 18343587330251176837
497634 4 16950569912646988931
559249 180 18262511499051150626
59755656 520 17986968366429611753
633830 44 17240771636228022322
90127 26 17203322295971677720

>  <PUBCHEM_SHAPE_MULTIPOLES>  (1) 
446.65
12.38
2.74
1.52
16.7
0.89
-0.36
0.13
4.12
-6.34
0.18
1
0.26
-0.32

>  <PUBCHEM_SHAPE_SELFOVERLAP>  (1) 
935.066

>  <PUBCHEM_SHAPE_VOLUME>  (1) 
253.9

>  <PUBCHEM_COORDINATE_TYPE>  (1) 
2
5
10

$$$$
