48686
     RDKit          3D

 12 12  0  0  0  0  0  0  0  0999 V2000
    2.1584   -2.4464   -0.0001 O   0  0  0  0  0  0  0  0  0  0  0  0
   -2.0060    0.0344   -0.0001 N   0  0  0  0  0  0  0  0  0  0  0  0
   -0.4758    0.0004    0.0000 C   0  0  0  0  0  0  0  0  0  0  0  0
   -2.4804    0.7678   -1.2515 C   0  0  0  0  0  0  0  0  0  0  0  0
   -2.4813    0.7498    1.2615 C   0  0  0  0  0  0  0  0  0  0  0  0
   -2.6148   -1.3663   -0.0098 C   0  0  0  0  0  0  0  0  0  0  0  0
    0.1643    1.1943    0.0000 C   0  0  0  0  0  0  0  0  0  0  0  0
    0.1101   -1.2211   -0.0002 C   0  0  0  0  0  0  0  0  0  0  0  0
    1.5588    1.1629    0.0002 C   0  0  0  0  0  0  0  0  0  0  0  0
    1.5045   -1.2525   -0.0003 C   0  0  0  0  0  0  0  0  0  0  0  0
    2.2289   -0.0605    0.0000 C   0  0  0  0  0  0  0  0  0  0  0  0
    2.3334    2.4371    0.0002 C   0  0  0  0  0  0  0  0  0  0  0  0
  1 10  1  0
  2  3  1  0
  2  4  1  0
  2  5  1  0
  2  6  1  0
  3  7  2  0
  3  8  1  0
  7  9  1  0
  8 10  2  0
  9 11  2  0
  9 12  1  0
 10 11  1  0
M  CHG  1   2   1
M  END
>  <PUBCHEM_COMPOUND_CID>  (1) 
48686

>  <PUBCHEM_CONFORMER_RMSD>  (1) 
0.4

>  <PUBCHEM_CONFORMER_DIVERSEORDER>  (1) 
1
2

>  <PUBCHEM_MMFF94_PARTIAL_CHARGES>  (1) 
16
1 -0.53
10 0.08
11 -0.15
12 0.14
2 -0.87
22 0.15
23 0.15
24 0.15
28 0.45
3 0.36
4 0.5
5 0.5
6 0.5
7 -0.15
8 -0.15
9 -0.14

>  <PUBCHEM_EFFECTIVE_ROTOR_COUNT>  (1) 
1

>  <PUBCHEM_PHARMACOPHORE_FEATURES>  (1) 
3
1 1 donor
1 2 cation
6 3 7 8 9 10 11 rings

>  <PUBCHEM_HEAVY_ATOM_COUNT>  (1) 
12

>  <PUBCHEM_ATOM_DEF_STEREO_COUNT>  (1) 
0

>  <PUBCHEM_ATOM_UDEF_STEREO_COUNT>  (1) 
0

>  <PUBCHEM_BOND_DEF_STEREO_COUNT>  (1) 
0

>  <PUBCHEM_BOND_UDEF_STEREO_COUNT>  (1) 
0

>  <PUBCHEM_ISOTOPIC_ATOM_COUNT>  (1) 
0

>  <PUBCHEM_COMPONENT_COUNT>  (1) 
1

>  <PUBCHEM_CACTVS_TAUTO_COUNT>  (1) 
9

>  <PUBCHEM_CONFORMER_ID>  (1) 
0000BE2E00000001

>  <PUBCHEM_MMFF94_ENERGY>  (1) 
50.3587

>  <PUBCHEM_FEATURE_SELFOVERLAP>  (1) 
15.223

>  <PUBCHEM_SHAPE_FINGERPRINT>  (1) 
1 1 18338234985241443876
12932764 1 17967817124067292699
13380535 76 18120369011018601466
14325111 11 18266458891570475328
14614273 12 18118674650657209693
14648413 74 18334851688936085397
15775835 57 18267591384436720773
16945 1 18410575046193100004
17844478 74 17822308855001787225
17990270 104 18409163290358697242
18380122 1 17969508284746477993
19973954 147 18408882919304580757
20645477 70 18411692202063921823
20653091 64 18413109450549391026
20711985 344 17257650019839911250
21028194 46 18118118297694686788
21040471 1 18050287269546156896
21501502 16 18410575110775923523
21524375 3 18048313641932144272
23552423 10 18411704300311086823
241688 4 17906452126180438162
2748010 2 18193280925649229644
5084963 1 18263080071016249657
63268167 104 18410855425773763289
7364860 26 18342740723788894814
74978 22 18340207384463141765
8030462 33 17917706924649769601
81228 2 17329708722137293504

>  <PUBCHEM_SHAPE_MULTIPOLES>  (1) 
236.1
4.18
2.25
0.88
1.24
0.44
0
-0.57
0
-1.69
0
0.67
-0.26
0

>  <PUBCHEM_SHAPE_SELFOVERLAP>  (1) 
481.603

>  <PUBCHEM_SHAPE_VOLUME>  (1) 
141.1

>  <PUBCHEM_COORDINATE_TYPE>  (1) 
2
5
10

$$$$
