48688
     RDKit          3D

 12 12  0  0  0  0  0  0  0  0999 V2000
    3.0995   -1.4521   -0.0041 O   0  0  0  0  0  0  0  0  0  0  0  0
   -1.6640   -0.6002   -0.0034 N   0  0  0  0  0  0  0  0  0  0  0  0
   -0.2252   -0.0781    0.0010 C   0  0  0  0  0  0  0  0  0  0  0  0
   -1.6991   -1.9477    0.7117 C   0  0  0  0  0  0  0  0  0  0  0  0
   -2.1311   -0.7404   -1.4495 C   0  0  0  0  0  0  0  0  0  0  0  0
   -2.6236    0.3455    0.7161 C   0  0  0  0  0  0  0  0  0  0  0  0
   -0.0393    1.2637    0.0067 C   0  0  0  0  0  0  0  0  0  0  0  0
    0.7523   -1.0188   -0.0031 C   0  0  0  0  0  0  0  0  0  0  0  0
    1.2784    1.7208    0.0090 C   0  0  0  0  0  0  0  0  0  0  0  0
   -1.1512    2.2611    0.0114 C   0  0  0  0  0  0  0  0  0  0  0  0
    2.0701   -0.5617   -0.0009 C   0  0  0  0  0  0  0  0  0  0  0  0
    2.3332    0.8081    0.0052 C   0  0  0  0  0  0  0  0  0  0  0  0
  1 11  1  0
  2  3  1  0
  2  4  1  0
  2  5  1  0
  2  6  1  0
  3  7  2  0
  3  8  1  0
  7  9  1  0
  7 10  1  0
  8 11  2  0
  9 12  2  0
 11 12  1  0
M  CHG  1   2   1
M  END
>  <PUBCHEM_COMPOUND_CID>  (1) 
48688

>  <PUBCHEM_CONFORMER_RMSD>  (1) 
0.4

>  <PUBCHEM_CONFORMER_DIVERSEORDER>  (1) 
1

>  <PUBCHEM_MMFF94_PARTIAL_CHARGES>  (1) 
16
1 -0.53
10 0.14
11 0.08
12 -0.15
2 -0.87
22 0.15
23 0.15
27 0.15
28 0.45
3 0.36
4 0.5
5 0.5
6 0.5
7 -0.14
8 -0.15
9 -0.15

>  <PUBCHEM_EFFECTIVE_ROTOR_COUNT>  (1) 
1

>  <PUBCHEM_PHARMACOPHORE_FEATURES>  (1) 
3
1 1 donor
1 2 cation
6 3 7 8 9 11 12 rings

>  <PUBCHEM_HEAVY_ATOM_COUNT>  (1) 
12

>  <PUBCHEM_ATOM_DEF_STEREO_COUNT>  (1) 
0

>  <PUBCHEM_ATOM_UDEF_STEREO_COUNT>  (1) 
0

>  <PUBCHEM_BOND_DEF_STEREO_COUNT>  (1) 
0

>  <PUBCHEM_BOND_UDEF_STEREO_COUNT>  (1) 
0

>  <PUBCHEM_ISOTOPIC_ATOM_COUNT>  (1) 
0

>  <PUBCHEM_COMPONENT_COUNT>  (1) 
1

>  <PUBCHEM_CACTVS_TAUTO_COUNT>  (1) 
3

>  <PUBCHEM_CONFORMER_ID>  (1) 
0000BE3000000001

>  <PUBCHEM_MMFF94_ENERGY>  (1) 
73.6911

>  <PUBCHEM_FEATURE_SELFOVERLAP>  (1) 
15.223

>  <PUBCHEM_SHAPE_FINGERPRINT>  (1) 
11206711 2 18336546010700599532
12423570 1 9936124316669081223
12524768 44 18412546521912569926
12932764 1 17417256570578079840
13024252 1 18041564615895261295
16945 1 18408602599689831904
17844478 74 17748836236732904801
17990270 104 18191588759789500114
193761 8 18410295804710562336
20201158 50 18262790907942694546
20645476 183 17321020467059378390
20871998 184 18055916498233472148
21040471 1 17906453225592209032
21501502 16 18412826867608443152
2334 1 18266180728023995538
23419403 2 16754294966548890848
23552423 10 18261397796814206476
23559900 14 17981325587458522766
241688 4 18410011052436181505
2748010 2 18265616678616812798
29004967 10 18264771145600955824
5084963 1 18202558454066040858
528886 8 18339080500739828161
63268167 104 18340766047933901545
8030462 33 18198907087629980437

>  <PUBCHEM_SHAPE_MULTIPOLES>  (1) 
236.1
3.79
2.16
0.87
0.85
0.53
-0.2
-1.13
0.03
-0.06
0.19
-0.59
-0.17
-0.04

>  <PUBCHEM_SHAPE_SELFOVERLAP>  (1) 
485.624

>  <PUBCHEM_SHAPE_VOLUME>  (1) 
138.9

>  <PUBCHEM_COORDINATE_TYPE>  (1) 
2
5
10

$$$$
