48698
     RDKit          3D

 19 22  0  0  1  0  0  0  0  0999 V2000
    5.2820    0.7963    0.5537 Cl  0  0  0  0  0  0  0  0  0  0  0  0
   -2.4971   -1.7425   -0.1099 N   0  0  0  0  0  0  0  0  0  0  0  0
   -1.1808   -1.1347    0.2165 C   0  0  0  0  0  0  0  0  0  0  0  0
   -1.1627    0.3865    0.0313 C   0  0  0  0  0  0  0  0  0  0  0  0
   -0.0458   -1.7524   -0.6314 C   0  0  0  0  0  0  0  0  0  0  0  0
   -2.3711    1.1104    0.0166 C   0  0  0  0  0  0  0  0  0  0  0  0
   -3.5684   -1.0285    0.6031 C   0  0  0  0  0  0  0  0  0  0  0  0
   -3.6930    0.3968    0.0729 C   0  0  0  0  0  0  0  0  0  0  0  0
    0.0809    1.0624   -0.0601 C   0  0  0  0  0  0  0  0  0  0  0  0
    1.2861   -1.1031   -0.3281 C   0  0  0  0  0  0  0  0  0  0  0  0
    1.3381    0.2797   -0.0485 C   0  0  0  0  0  0  0  0  0  0  0  0
   -2.5547   -3.1652    0.2423 C   0  0  0  0  0  0  0  0  0  0  0  0
   -2.3485    2.5016   -0.1192 C   0  0  0  0  0  0  0  0  0  0  0  0
    0.0632    2.4625   -0.1930 C   0  0  0  0  0  0  0  0  0  0  0  0
    2.4602   -1.8710   -0.3675 C   0  0  0  0  0  0  0  0  0  0  0  0
   -1.1369    3.1738   -0.2202 C   0  0  0  0  0  0  0  0  0  0  0  0
    2.5959    0.8432    0.2315 C   0  0  0  0  0  0  0  0  0  0  0  0
    3.6929   -1.2852   -0.0976 C   0  0  0  0  0  0  0  0  0  0  0  0
    3.7597    0.0693    0.2076 C   0  0  0  0  0  0  0  0  0  0  0  0
  1 19  1  0
  2  3  1  0
  2  7  1  0
  2 12  1  0
  3  4  1  0
  3  5  1  0
  4  6  2  0
  4  9  1  0
  5 10  1  0
  6  8  1  0
  6 13  1  0
  7  8  1  0
  9 11  1  0
  9 14  2  0
 10 11  2  0
 10 15  1  0
 11 17  1  0
 13 16  2  0
 14 16  1  0
 15 18  2  0
 17 19  2  0
 18 19  1  0
M  END
>  <PUBCHEM_COMPOUND_CID>  (1) 
48698

>  <PUBCHEM_CONFORMER_RMSD>  (1) 
0.6

>  <PUBCHEM_CONFORMER_DIVERSEORDER>  (1) 
1

>  <PUBCHEM_MMFF94_PARTIAL_CHARGES>  (1) 
23
1 -0.18
10 -0.14
12 0.27
13 -0.15
14 -0.15
15 -0.15
16 -0.15
17 -0.15
18 -0.15
19 0.18
2 -0.81
3 0.41
30 0.15
31 0.15
32 0.15
33 0.15
34 0.15
35 0.15
4 -0.14
5 0.14
6 -0.14
7 0.27
8 0.14

>  <PUBCHEM_EFFECTIVE_ROTOR_COUNT>  (1) 
0.8

>  <PUBCHEM_PHARMACOPHORE_FEATURES>  (1) 
5
1 2 cation
6 10 11 15 17 18 19 rings
6 2 3 4 6 7 8 rings
6 3 4 5 9 10 11 rings
6 4 6 9 13 14 16 rings

>  <PUBCHEM_HEAVY_ATOM_COUNT>  (1) 
19

>  <PUBCHEM_ATOM_DEF_STEREO_COUNT>  (1) 
1

>  <PUBCHEM_ATOM_UDEF_STEREO_COUNT>  (1) 
0

>  <PUBCHEM_BOND_DEF_STEREO_COUNT>  (1) 
0

>  <PUBCHEM_BOND_UDEF_STEREO_COUNT>  (1) 
0

>  <PUBCHEM_ISOTOPIC_ATOM_COUNT>  (1) 
0

>  <PUBCHEM_COMPONENT_COUNT>  (1) 
1

>  <PUBCHEM_CACTVS_TAUTO_COUNT>  (1) 
1

>  <PUBCHEM_CONFORMER_ID>  (1) 
0000BE3A00000001

>  <PUBCHEM_MMFF94_ENERGY>  (1) 
54.9071

>  <PUBCHEM_FEATURE_SELFOVERLAP>  (1) 
25.46

>  <PUBCHEM_SHAPE_FINGERPRINT>  (1) 
10319926 262 18267846330355311426
10366900 7 18059562598987127112
10411042 1 18122062275842047115
10493431 412 18198070179510405841
10608611 8 18341047394298944076
10616163 171 18411140246899353550
10906281 52 18340783576128076749
10967382 1 17762339519068755461
11132069 177 18411700984707097680
11578080 2 17169802640000451900
11680986 33 18196082477061288201
12011746 2 18412821378687543077
12173636 292 18120935001545553349
12390115 104 18057338201176131800
12553582 1 18265629851455894823
12730499 353 17253149727739091325
13140716 1 18195813087980013457
13214271 11 18341889727326828022
138480 1 15960333944003533757
14081887 123 18340474621596951344
14223421 5 18340770334474715246
14420673 8 17904751186663469994
14787075 74 17970067962108977594
14790565 3 17328032473580298501
15042514 8 18409169921883264819
15196674 1 18339643339050447324
15219456 202 18342738460293592126
15442244 35 18120652436026859786
16945 1 18337959995348812989
17357779 13 18338779209279834357
17804303 29 18341337725128895524
19591789 44 17977952280491980187
19784866 170 18412828014607252402
20510252 161 18270399373846227881
21029758 11 18341606019420914365
21029758 27 18264212593646546796
21267235 1 18337964466404870018
21339142 51 18335695079058485661
2334 1 17907018735388167965
23402539 116 18341040870301572599
23419403 2 17684056430022685381
23463225 33 18409451409697014756
23557571 272 18342750598076931756
23559900 14 18053659184299450758
238 59 16384488223713551253
2748010 2 18341055124886590807
335352 9 17906735795700937766
34934 24 18409724062874527699
3524813 1 18059284457189933528
352729 6 17978791212037452381
5104073 3 18339641119042940632
54173680 148 18409731759355558887
58807428 26 17977389330707169593
69090 78 18341046307571848519
7097593 13 17610044682169722266
7364860 26 17906737260364075481
81228 2 18262252027033382049
8809292 202 18266464213108658690
9709674 26 18270118998697604070

>  <PUBCHEM_SHAPE_MULTIPOLES>  (1) 
387.9
7.36
3.3
0.7
6.67
0.42
0.01
-0.73
1.35
-2.5
-0.22
0.06
-0.05
0.6

>  <PUBCHEM_SHAPE_SELFOVERLAP>  (1) 
853.148

>  <PUBCHEM_SHAPE_VOLUME>  (1) 
210.6

>  <PUBCHEM_COORDINATE_TYPE>  (1) 
2
5
10

$$$$
