48692
     RDKit          3D

 16 16  0  0  0  0  0  0  0  0999 V2000
    1.8504   -1.2501    0.8261 S   0  0  0  0  0  0  0  0  0  0  0  0
    2.0531   -0.0396   -1.4768 O   0  0  0  0  0  0  0  0  0  0  0  0
   -2.6811    1.2241    0.0886 N   0  0  0  0  0  0  0  0  0  0  0  0
    3.6814    0.5889    0.0621 N   0  0  0  0  0  0  0  0  0  0  0  0
   -1.8939   -0.0879    0.0473 C   0  0  0  0  0  0  0  0  0  0  0  0
   -3.8426    1.0689    1.0661 C   0  0  0  0  0  0  0  0  0  0  0  0
   -3.1911    1.5351   -1.3159 C   0  0  0  0  0  0  0  0  0  0  0  0
   -1.8221    2.3985    0.5529 C   0  0  0  0  0  0  0  0  0  0  0  0
   -0.5890   -0.0320    0.4071 C   0  0  0  0  0  0  0  0  0  0  0  0
   -2.5691   -1.1950   -0.3449 C   0  0  0  0  0  0  0  0  0  0  0  0
    0.1277   -1.2280    0.3698 C   0  0  0  0  0  0  0  0  0  0  0  0
   -1.8521   -2.3910   -0.3824 C   0  0  0  0  0  0  0  0  0  0  0  0
   -0.5037   -2.4075   -0.0252 C   0  0  0  0  0  0  0  0  0  0  0  0
    2.5487   -0.1267   -0.3553 C   0  0  0  0  0  0  0  0  0  0  0  0
    4.3028    0.5151    1.3849 C   0  0  0  0  0  0  0  0  0  0  0  0
    4.3806    1.4273   -0.9042 C   0  0  0  0  0  0  0  0  0  0  0  0
  1 11  1  0
  1 14  1  0
  2 14  2  0
  3  5  1  0
  3  6  1  0
  3  7  1  0
  3  8  1  0
  4 14  1  0
  4 15  1  0
  4 16  1  0
  5  9  2  0
  5 10  1  0
  9 11  1  0
 10 12  2  0
 11 13  2  0
 12 13  1  0
M  CHG  1   3   1
M  END
>  <PUBCHEM_COMPOUND_CID>  (1) 
48692

>  <PUBCHEM_CONFORMER_RMSD>  (1) 
0.6

>  <PUBCHEM_CONFORMER_DIVERSEORDER>  (1) 
1
42
29
37
23
7
28
22
39
40
10
26
41
19
12
2
43
32
31
30
11
9
13
3
46
34
38
24
15
6
8
44
16
20
33
5
18
35
17
4
27
45
36
25
14
21

>  <PUBCHEM_MMFF94_PARTIAL_CHARGES>  (1) 
20
1 -0.24
10 -0.15
11 0.1
12 -0.15
13 -0.15
14 0.77
15 0.3
16 0.3
2 -0.57
26 0.15
27 0.15
28 0.15
29 0.15
3 -0.87
4 -0.66
5 0.36
6 0.5
7 0.5
8 0.5
9 -0.15

>  <PUBCHEM_EFFECTIVE_ROTOR_COUNT>  (1) 
4

>  <PUBCHEM_PHARMACOPHORE_FEATURES>  (1) 
2
1 3 cation
6 5 9 10 11 12 13 rings

>  <PUBCHEM_HEAVY_ATOM_COUNT>  (1) 
16

>  <PUBCHEM_ATOM_DEF_STEREO_COUNT>  (1) 
0

>  <PUBCHEM_ATOM_UDEF_STEREO_COUNT>  (1) 
0

>  <PUBCHEM_BOND_DEF_STEREO_COUNT>  (1) 
0

>  <PUBCHEM_BOND_UDEF_STEREO_COUNT>  (1) 
0

>  <PUBCHEM_ISOTOPIC_ATOM_COUNT>  (1) 
0

>  <PUBCHEM_COMPONENT_COUNT>  (1) 
1

>  <PUBCHEM_CACTVS_TAUTO_COUNT>  (1) 
1

>  <PUBCHEM_CONFORMER_ID>  (1) 
0000BE3400000001

>  <PUBCHEM_MMFF94_ENERGY>  (1) 
61.7882

>  <PUBCHEM_FEATURE_SELFOVERLAP>  (1) 
10.148

>  <PUBCHEM_SHAPE_FINGERPRINT>  (1) 
10498660 4 18411978057237179081
10646746 165 18342452686439746768
11543360 7 15626210334375484312
11640471 11 18187362117049334256
11715629 250 18408887304355296774
12173636 292 18271524200232558469
12403814 3 17967252001240377165
13583140 156 17095798811470030809
13764800 53 18410866451202849187
14123255 52 18338517422143356413
14251764 38 17986097737878367256
14614273 12 18333723616071164439
14739800 52 17905595950948765736
14897335 6 18336538335372624938
15342168 16 18196942072011270449
15775835 57 18334861601725645480
16945 1 18198898111707546403
17134986 127 18122910824024516951
1741750 31 18341894078028537082
1798214 55 18340206301968229768
18186145 218 18270405983921929686
204376 136 18409731721032961297
20510252 161 18341618143728560259
20645477 56 18341618126469238338
20671657 1 18122347869629045663
21524375 3 18336826385939023675
2306618 200 17822834485641644975
23402539 116 18199457938940532783
23557571 272 18059027196996075366
23559900 14 18202004309792725286
2838139 119 16879602939954936461
305870 269 18187360987425969386
3268164 11 18201148979012220838
633830 44 17914903037002725813
7364860 26 18125721193162988322
81228 2 18267871772961103763

>  <PUBCHEM_SHAPE_MULTIPOLES>  (1) 
317.29
7.71
2.5
1.19
6.56
0.48
0.07
-4.57
-0.2
-1.73
0.1
0.36
-0.35
-0.58

>  <PUBCHEM_SHAPE_SELFOVERLAP>  (1) 
625.746

>  <PUBCHEM_SHAPE_VOLUME>  (1) 
194.6

>  <PUBCHEM_COORDINATE_TYPE>  (1) 
2
5
10

$$$$
