48696
     RDKit          3D

 17 16  0  0  0  0  0  0  0  0999 V2000
    3.7169   -0.0958   -0.2401 N   0  0  0  0  0  0  0  0  0  0  0  0
   -3.7263    0.1013   -0.2430 N   0  0  0  0  0  0  0  0  0  0  0  0
    2.5301   -0.0690    0.6483 C   0  0  0  0  0  0  0  0  0  0  0  0
   -2.5363    0.1057    0.6400 C   0  0  0  0  0  0  0  0  0  0  0  0
    1.2699   -0.0433   -0.2039 C   0  0  0  0  0  0  0  0  0  0  0  0
   -1.2558    0.0216   -0.1815 C   0  0  0  0  0  0  0  0  0  0  0  0
    0.0165    0.0317    0.6708 C   0  0  0  0  0  0  0  0  0  0  0  0
    5.0130   -0.1554    0.5810 C   0  0  0  0  0  0  0  0  0  0  0  0
    3.7686    1.1609   -1.1206 C   0  0  0  0  0  0  0  0  0  0  0  0
   -5.0210    0.1210    0.5827 C   0  0  0  0  0  0  0  0  0  0  0  0
   -3.7462   -1.1537   -1.1281 C   0  0  0  0  0  0  0  0  0  0  0  0
    3.6813   -1.3226   -1.1627 C   0  0  0  0  0  0  0  0  0  0  0  0
   -3.7304    1.3314   -1.1625 C   0  0  0  0  0  0  0  0  0  0  0  0
    5.0264   -1.4280    1.3992 C   0  0  0  0  0  0  0  0  0  0  0  0
    3.8045    2.3880   -0.2362 C   0  0  0  0  0  0  0  0  0  0  0  0
   -5.0686    1.3906    1.4044 C   0  0  0  0  0  0  0  0  0  0  0  0
   -3.7426   -2.3843   -0.2478 C   0  0  0  0  0  0  0  0  0  0  0  0
  1  3  1  0
  1  8  1  0
  1  9  1  0
  1 12  1  0
  2  4  1  0
  2 10  1  0
  2 11  1  0
  2 13  1  0
  3  5  1  0
  4  6  1  0
  5  7  1  0
  6  7  1  0
  8 14  1  0
  9 15  1  0
 10 16  1  0
 11 17  1  0
M  CHG  2   1   1   2   1
M  END
>  <PUBCHEM_COMPOUND_CID>  (1) 
48696

>  <PUBCHEM_CONFORMER_RMSD>  (1) 
0.8

>  <PUBCHEM_CONFORMER_DIVERSEORDER>  (1) 
1
5
45
133
53
102
86
74
33
114
137
154
64
59
117
11
35
150
46
169
19
168
129
43
92
76
132
34
120
2
165
138
47
93
79
144
151
51
134
131
61
159
66
22
3
41
139
90
28
166
107
26
87
17
98
145
24
118
105
55
122
30
91
95
146
156
82
73
112
108
147
161
99
83
155
152
72
127
113
125
109
106
18
157
111
50
141
81
142
69
42
148
60
163
143
130
97
67
123
20
104
128
116
70
110
54
15
162
49
89
52
78
65
40
135
21
124
158
149
115
140
32
25
80
103
164
13
23
62
167
96
38
85
29
160
88
119
101
48
56
100
136
31
27
63
77
9
37
94
36
71
8
153
75
4
39
16
121
68
12
126
14
6
84
10
7
58
44
57

>  <PUBCHEM_MMFF94_PARTIAL_CHARGES>  (1) 
10
1 -1.01
10 0.5
11 0.5
12 0.5
13 0.5
2 -1.01
3 0.5
4 0.5
8 0.5
9 0.5

>  <PUBCHEM_EFFECTIVE_ROTOR_COUNT>  (1) 
10

>  <PUBCHEM_PHARMACOPHORE_FEATURES>  (1) 
2
1 1 cation
1 2 cation

>  <PUBCHEM_HEAVY_ATOM_COUNT>  (1) 
17

>  <PUBCHEM_ATOM_DEF_STEREO_COUNT>  (1) 
0

>  <PUBCHEM_ATOM_UDEF_STEREO_COUNT>  (1) 
0

>  <PUBCHEM_BOND_DEF_STEREO_COUNT>  (1) 
0

>  <PUBCHEM_BOND_UDEF_STEREO_COUNT>  (1) 
0

>  <PUBCHEM_ISOTOPIC_ATOM_COUNT>  (1) 
0

>  <PUBCHEM_COMPONENT_COUNT>  (1) 
1

>  <PUBCHEM_CACTVS_TAUTO_COUNT>  (1) 
1

>  <PUBCHEM_CONFORMER_ID>  (1) 
0000BE3800000001

>  <PUBCHEM_MMFF94_ENERGY>  (1) 
62.0378

>  <PUBCHEM_FEATURE_SELFOVERLAP>  (1) 
10.149

>  <PUBCHEM_SHAPE_FINGERPRINT>  (1) 
10680689 15 18040715866302242941
10912923 1 18410855494493174955
11405975 8 18410575093253026883
11543360 7 18338516446948104564
12616971 3 18334013891003055315
12616999 72 17988933309867554588
13167823 11 18333444361265731890
1420 363 15213308508283187969
15788980 27 18040711454890898910
17834072 33 18410575131918281692
17844677 252 18040437672348678965
18186145 218 15791727499237798272
19050596 39 18412825789323439710
19433438 28 17167863049780375205
20281475 54 18343581854299684731
20369508 70 17967527953221246930
20645477 56 18334576803035182661
20645477 70 16660647315523354434
220451 1 18408044000828574882
22485316 2 15913324680365307983
23402539 116 18187636994761170966
23402655 69 18343026613965735556
23503953 91 18343865506692978280
23557571 272 17059785407904337464
23559900 14 18059863826977608486
268830 7 18334856142695988432
300161 21 14476951272951597968
3004659 81 18342742910059175870
4214541 1 18413107268906328029
5104073 3 18410855503077842050
5281201 14 17967814937987182596
542803 24 18412832382388499961
573450 72 18343015597195331731
633830 44 18408608067051454407
67856867 119 18339918333560227760
77779 3 18343024419052636063
90127 26 16805315600380637637

>  <PUBCHEM_SHAPE_MULTIPOLES>  (1) 
339.89
14.08
1.92
1.3
0.16
0.01
0.03
-0.07
1.89
-0.05
-0.26
0.01
0
-1.43

>  <PUBCHEM_SHAPE_SELFOVERLAP>  (1) 
622.319

>  <PUBCHEM_SHAPE_VOLUME>  (1) 
218

>  <PUBCHEM_COORDINATE_TYPE>  (1) 
2
5
10

$$$$
