487
     RDKit          3D

  8  7  0  0  0  0  0  0  0  0999 V2000
    2.3938   -0.4259   -0.3886 O   0  0  0  0  0  0  0  0  0  0  0  0
   -2.3104   -0.3435   -0.7764 O   0  0  0  0  0  0  0  0  0  0  0  0
    1.2617    1.4784    0.0907 O   0  0  0  0  0  0  0  0  0  0  0  0
   -1.4047    1.1636    0.6562 O   0  0  0  0  0  0  0  0  0  0  0  0
    0.0154   -0.5934   -0.2073 C   0  0  0  0  0  0  0  0  0  0  0  0
    0.0730   -1.7245    0.8151 C   0  0  0  0  0  0  0  0  0  0  0  0
    1.2576    0.2763   -0.1402 C   0  0  0  0  0  0  0  0  0  0  0  0
   -1.2864    0.1689   -0.0495 C   0  0  0  0  0  0  0  0  0  0  0  0
  1  7  1  0
  2  8  1  0
  3  7  2  0
  4  8  2  0
  5  6  1  0
  5  7  1  0
  5  8  1  0
M  END
>  <PUBCHEM_COMPOUND_CID>  (1) 
487

>  <PUBCHEM_CONFORMER_RMSD>  (1) 
0.4

>  <PUBCHEM_CONFORMER_DIVERSEORDER>  (1) 
1
4
2
9
6
5
3
7
8

>  <PUBCHEM_MMFF94_PARTIAL_CHARGES>  (1) 
9
1 -0.65
13 0.5
14 0.5
2 -0.65
3 -0.57
4 -0.57
5 0.12
7 0.66
8 0.66

>  <PUBCHEM_EFFECTIVE_ROTOR_COUNT>  (1) 
2

>  <PUBCHEM_PHARMACOPHORE_FEATURES>  (1) 
8
1 1 acceptor
1 2 acceptor
1 3 acceptor
1 4 acceptor
1 5 anion
1 6 hydrophobe
3 1 3 7 anion
3 2 4 8 anion

>  <PUBCHEM_HEAVY_ATOM_COUNT>  (1) 
8

>  <PUBCHEM_ATOM_DEF_STEREO_COUNT>  (1) 
0

>  <PUBCHEM_ATOM_UDEF_STEREO_COUNT>  (1) 
0

>  <PUBCHEM_BOND_DEF_STEREO_COUNT>  (1) 
0

>  <PUBCHEM_BOND_UDEF_STEREO_COUNT>  (1) 
0

>  <PUBCHEM_ISOTOPIC_ATOM_COUNT>  (1) 
0

>  <PUBCHEM_COMPONENT_COUNT>  (1) 
1

>  <PUBCHEM_CACTVS_TAUTO_COUNT>  (1) 
1

>  <PUBCHEM_CONFORMER_ID>  (1) 
000001E700000001

>  <PUBCHEM_MMFF94_ENERGY>  (1) 
8.5737

>  <PUBCHEM_FEATURE_SELFOVERLAP>  (1) 
41.218

>  <PUBCHEM_SHAPE_FINGERPRINT>  (1) 
18185500 45 18123183507145176259
20096714 4 18411986840423914584
21040471 1 18187363289364461390
24536 1 18266180715355286976
5084963 1 18334856134110939053

>  <PUBCHEM_SHAPE_MULTIPOLES>  (1) 
141.16
2.56
1.46
0.79
0.03
0.26
-0.03
-0.32
0.56
0.17
-0.42
-0.18
0.09
-0.11

>  <PUBCHEM_SHAPE_SELFOVERLAP>  (1) 
269.546

>  <PUBCHEM_SHAPE_VOLUME>  (1) 
86.3

>  <PUBCHEM_COORDINATE_TYPE>  (1) 
2
5
10

$$$$
