48700
     RDKit          3D

 19 22  0  0  1  0  0  0  0  0999 V2000
   -2.4704   -1.7594   -0.1177 N   0  0  0  0  0  0  0  0  0  0  0  0
   -1.1606   -1.1404    0.2136 C   0  0  0  0  0  0  0  0  0  0  0  0
   -1.1555    0.3812    0.0311 C   0  0  0  0  0  0  0  0  0  0  0  0
   -0.0176   -1.7464   -0.6321 C   0  0  0  0  0  0  0  0  0  0  0  0
   -2.3704    1.0943    0.0143 C   0  0  0  0  0  0  0  0  0  0  0  0
   -3.5500   -1.0563    0.5936 C   0  0  0  0  0  0  0  0  0  0  0  0
   -3.6860    0.3687    0.0655 C   0  0  0  0  0  0  0  0  0  0  0  0
    0.0822    1.0683   -0.0556 C   0  0  0  0  0  0  0  0  0  0  0  0
    1.3075   -1.0857   -0.3239 C   0  0  0  0  0  0  0  0  0  0  0  0
    1.3463    0.2970   -0.0418 C   0  0  0  0  0  0  0  0  0  0  0  0
   -2.5162   -3.1832    0.2319 C   0  0  0  0  0  0  0  0  0  0  0  0
   -2.3599    2.4859   -0.1190 C   0  0  0  0  0  0  0  0  0  0  0  0
    0.0523    2.4685   -0.1860 C   0  0  0  0  0  0  0  0  0  0  0  0
    2.4885   -1.8431   -0.3613 C   0  0  0  0  0  0  0  0  0  0  0  0
    2.5983    0.8712    0.2429 C   0  0  0  0  0  0  0  0  0  0  0  0
   -1.1540    3.1691   -0.2154 C   0  0  0  0  0  0  0  0  0  0  0  0
    3.7690    0.1078    0.2209 C   0  0  0  0  0  0  0  0  0  0  0  0
    3.7152   -1.2467   -0.0869 C   0  0  0  0  0  0  0  0  0  0  0  0
    5.0811    0.7494    0.5257 C   0  0  0  0  0  0  0  0  0  0  0  0
  1  2  1  0
  1  6  1  0
  1 11  1  0
  2  3  1  0
  2  4  1  0
  3  5  2  0
  3  8  1  0
  4  9  1  0
  5  7  1  0
  5 12  1  0
  6  7  1  0
  8 10  1  0
  8 13  2  0
  9 10  2  0
  9 14  1  0
 10 15  1  0
 12 16  2  0
 13 16  1  0
 14 18  2  0
 15 17  2  0
 17 18  1  0
 17 19  1  0
M  END
>  <PUBCHEM_COMPOUND_CID>  (1) 
48700

>  <PUBCHEM_CONFORMER_RMSD>  (1) 
0.6

>  <PUBCHEM_CONFORMER_DIVERSEORDER>  (1) 
1

>  <PUBCHEM_MMFF94_PARTIAL_CHARGES>  (1) 
23
1 -0.81
11 0.27
12 -0.15
13 -0.15
14 -0.15
15 -0.15
16 -0.15
17 -0.14
18 -0.15
19 0.14
2 0.41
3 -0.14
30 0.15
31 0.15
32 0.15
33 0.15
34 0.15
35 0.15
4 0.14
5 -0.14
6 0.27
7 0.14
9 -0.14

>  <PUBCHEM_EFFECTIVE_ROTOR_COUNT>  (1) 
0.8

>  <PUBCHEM_PHARMACOPHORE_FEATURES>  (1) 
5
1 1 cation
6 1 2 3 5 6 7 rings
6 2 3 4 8 9 10 rings
6 3 5 8 12 13 16 rings
6 9 10 14 15 17 18 rings

>  <PUBCHEM_HEAVY_ATOM_COUNT>  (1) 
19

>  <PUBCHEM_ATOM_DEF_STEREO_COUNT>  (1) 
1

>  <PUBCHEM_ATOM_UDEF_STEREO_COUNT>  (1) 
0

>  <PUBCHEM_BOND_DEF_STEREO_COUNT>  (1) 
0

>  <PUBCHEM_BOND_UDEF_STEREO_COUNT>  (1) 
0

>  <PUBCHEM_ISOTOPIC_ATOM_COUNT>  (1) 
0

>  <PUBCHEM_COMPONENT_COUNT>  (1) 
1

>  <PUBCHEM_CACTVS_TAUTO_COUNT>  (1) 
1

>  <PUBCHEM_CONFORMER_ID>  (1) 
0000BE3C00000001

>  <PUBCHEM_MMFF94_ENERGY>  (1) 
56.7436

>  <PUBCHEM_FEATURE_SELFOVERLAP>  (1) 
25.46

>  <PUBCHEM_SHAPE_FINGERPRINT>  (1) 
10319926 262 18267846330350010706
10411042 1 18122062275826229347
10493431 412 18198351658808438089
10608611 8 18341047398588649604
10616163 171 18411140246904634790
10906281 52 18340784675660797037
10967382 1 17762339523347898501
11132069 177 18411982463968226120
11578080 2 17242141713310044788
11680986 33 18195801006374270097
12011746 2 18413103953144245965
12173636 292 18121216476506452725
12553582 1 18265629851445351823
12730499 353 17253148628211645813
13140716 1 18195814187465299945
13214271 11 18341889727321559766
138480 1 15960333943982454237
14081887 123 18340474625891918640
14223421 5 18340770334506357270
14420673 8 17832413212833862858
14787075 74 17897728897352422002
14790565 3 17400088967985298829
15042514 8 18409168822382173555
15196674 1 18339643343303190604
15219456 202 18270680866245108198
15442244 35 18120652436037402802
16945 1 18409455756130117325
17357779 13 18339060688535655565
17804303 29 18413395332057045552
19141452 34 18271812349947383571
19591789 44 17977952280455043931
20510252 161 18270399373862058625
21029758 11 18341606023715875157
21029758 27 18191874624101324948
21267235 1 18337964466410144770
21339142 51 18335695074758243613
2334 1 17907018735356519437
23402539 116 18341039770789925335
23419403 2 17684337904983578269
23463225 33 18409451409723421004
23557571 272 18343032073027262148
23559900 14 18125999357115383750
238 59 16529165270836966013
2748010 2 18340773645599075599
335352 9 17906734700505350302
34934 24 18409722967652605467
350125 39 18050295760337727036
3524813 1 18131342051217331440
352729 6 18050847710837627325
5104073 3 18339922598314612096
54173680 148 18409731763634688931
58807428 26 17977389334991580889
69090 78 18341046311840435559
7097593 13 17682101189644195346
7364860 26 17834678571093669305
81228 2 18262252027006988785
8809292 202 18266745683832600074
9709674 26 18270119002987277118

>  <PUBCHEM_SHAPE_MULTIPOLES>  (1) 
386.03
7.15
3.3
0.7
5.86
0.38
0
-0.86
1.2
-2.52
-0.21
0.05
-0.05
0.57

>  <PUBCHEM_SHAPE_SELFOVERLAP>  (1) 
856.286

>  <PUBCHEM_SHAPE_VOLUME>  (1) 
205.9

>  <PUBCHEM_COORDINATE_TYPE>  (1) 
2
5
10

$$$$
