4870
     RDKit          3D

 25 26  0  0  1  0  0  0  0  0999 V2000
   -3.2185   -3.3746    0.2255 Cl  0  0  0  0  0  0  0  0  0  0  0  0
   -0.9566    2.4331   -0.3939 S   0  0  0  0  0  0  0  0  0  0  0  0
    3.7539   -0.2046   -0.4586 S   0  0  0  0  0  0  0  0  0  0  0  0
   -5.2249   -0.8595   -0.0805 S   0  0  0  0  0  0  0  0  0  0  0  0
    7.4951   -0.8931    0.6758 F   0  0  0  0  0  0  0  0  0  0  0  0
    5.9151   -2.2852    0.0846 F   0  0  0  0  0  0  0  0  0  0  0  0
    6.6274   -0.7797   -1.3189 F   0  0  0  0  0  0  0  0  0  0  0  0
   -1.8073    3.3230    0.3716 O   0  0  0  0  0  0  0  0  0  0  0  0
   -0.7506    2.6313   -1.8158 O   0  0  0  0  0  0  0  0  0  0  0  0
   -5.8009    0.2764   -0.7823 O   0  0  0  0  0  0  0  0  0  0  0  0
   -5.5398   -2.2141   -0.5057 O   0  0  0  0  0  0  0  0  0  0  0  0
    0.5807    2.2706    0.4005 N   0  0  0  0  0  0  0  0  0  0  0  0
    0.7022   -0.1523   -0.0420 N   0  0  0  0  0  0  0  0  0  0  0  0
   -5.5621   -0.7115    1.5867 N   0  0  0  0  0  0  0  0  0  0  0  0
    1.3742    1.1309   -0.1844 C   0  0  0  0  0  0  0  0  0  0  0  0
   -1.5750    0.7864   -0.2200 C   0  0  0  0  0  0  0  0  0  0  0  0
   -0.6784   -0.2883   -0.0946 C   0  0  0  0  0  0  0  0  0  0  0  0
    2.7790    1.0529    0.4051 C   0  0  0  0  0  0  0  0  0  0  0  0
    0.5518    2.2921    1.8936 C   0  0  0  0  0  0  0  0  0  0  0  0
   -2.9608    0.6081   -0.2137 C   0  0  0  0  0  0  0  0  0  0  0  0
   -1.2382   -1.5683    0.0470 C   0  0  0  0  0  0  0  0  0  0  0  0
   -3.4824   -0.6747   -0.0800 C   0  0  0  0  0  0  0  0  0  0  0  0
   -2.6231   -1.7624    0.0502 C   0  0  0  0  0  0  0  0  0  0  0  0
    5.2975   -0.0284    0.4663 C   0  0  0  0  0  0  0  0  0  0  0  0
    6.3417   -1.0082   -0.0164 C   0  0  0  0  0  0  0  0  0  0  0  0
  1 23  1  0
  2  8  2  0
  2  9  2  0
  2 12  1  0
  2 16  1  0
  3 18  1  0
  3 24  1  0
  4 10  2  0
  4 11  2  0
  4 14  1  0
  4 22  1  0
  5 25  1  0
  6 25  1  0
  7 25  1  0
 12 15  1  0
 12 19  1  0
 13 15  1  0
 13 17  1  0
 15 18  1  0
 16 17  2  0
 16 20  1  0
 17 21  1  0
 20 22  2  0
 21 23  2  0
 22 23  1  0
 24 25  1  0
M  END
>  <PUBCHEM_COMPOUND_CID>  (1) 
4870

>  <PUBCHEM_CONFORMER_RMSD>  (1) 
0.8

>  <PUBCHEM_CONFORMER_DIVERSEORDER>  (1) 
1
11
23
13
12
37
6
8
10
4
16
2
33
24
5
3
9
31
39
34
25
19
27
14
21
26
35
7
15
30
32
18
40
38
17
36
20
43
41
29
22
28
42

>  <PUBCHEM_MMFF94_PARTIAL_CHARGES>  (1) 
30
1 -0.18
10 -0.65
11 -0.65
12 -0.85
13 -0.87
14 -0.98
15 0.72
16 -0.01
17 0.1
18 0.23
19 0.36
2 1.45
20 -0.15
21 -0.15
22 -0.01
23 0.18
24 0.23
25 1.02
27 0.4
3 -0.46
33 0.15
34 0.15
37 0.42
38 0.42
4 1.45
5 -0.34
6 -0.34
7 -0.34
8 -0.65
9 -0.65

>  <PUBCHEM_EFFECTIVE_ROTOR_COUNT>  (1) 
5.6

>  <PUBCHEM_PHARMACOPHORE_FEATURES>  (1) 
9
1 10 acceptor
1 11 acceptor
1 13 cation
1 13 donor
1 14 donor
1 8 acceptor
1 9 acceptor
6 16 17 20 21 22 23 rings
6 2 12 13 15 16 17 rings

>  <PUBCHEM_HEAVY_ATOM_COUNT>  (1) 
25

>  <PUBCHEM_ATOM_DEF_STEREO_COUNT>  (1) 
0

>  <PUBCHEM_ATOM_UDEF_STEREO_COUNT>  (1) 
1

>  <PUBCHEM_BOND_DEF_STEREO_COUNT>  (1) 
0

>  <PUBCHEM_BOND_UDEF_STEREO_COUNT>  (1) 
0

>  <PUBCHEM_ISOTOPIC_ATOM_COUNT>  (1) 
0

>  <PUBCHEM_COMPONENT_COUNT>  (1) 
1

>  <PUBCHEM_CACTVS_TAUTO_COUNT>  (1) 
1

>  <PUBCHEM_CONFORMER_ID>  (1) 
0000130600000001

>  <PUBCHEM_MMFF94_ENERGY>  (1) 
45.7487

>  <PUBCHEM_FEATURE_SELFOVERLAP>  (1) 
45.724

>  <PUBCHEM_SHAPE_FINGERPRINT>  (1) 
11524674 6 17275101734578807494
12166972 35 17676491674307473836
12236239 1 17458347433601289326
12516196 113 18131349730771759090
12596602 18 13758358855896782406
12760667 363 18342455937002015334
12788726 201 18260542277888532698
13140716 1 18122352543476019435
13288520 33 18411135835820182581
13402501 40 18343019986905356238
13631057 29 18410008824170977050
13862211 1 18411418444826644879
14251752 14 18040712554360277111
14347332 77 18333726893320926820
14420673 8 18408606993742511075
14790565 3 17188697438059879592
14866123 147 18341336587532352681
15042514 8 18339081493041349312
15131766 46 15265345207250651840
15927050 60 17837773331633596197
17492 89 17906451387631627615
18006028 8 18202843257959014312
1813 80 17749942379495280668
20403669 9 18343305864402659598
21236236 1 18341894039500639617
21267235 1 18335424590592391235
21279426 13 18409720781740968901
21682296 61 18338519750543372475
2297311 6 18412548695682798052
23198884 109 14923943435793884078
23402539 116 18413102879602804159
23522609 53 18123502524484736608
23557571 272 18201443528433661820
23559900 14 18267014132215946953
3004659 81 18186799206141008678
335352 9 18409445900003112607
4340502 62 14261357968083931988
437815 12 18202282523860428387
5104073 3 18057612160059827491
59755656 215 18411135805893022918
59755656 520 18193835929560531101
6138700 20 18409445890975749935

>  <PUBCHEM_SHAPE_MULTIPOLES>  (1) 
467.67
15.2
3.27
1.08
21.42
0.7
0.14
-12.42
-0.06
-1.71
0.14
-0.08
0.56
0.54

>  <PUBCHEM_SHAPE_SELFOVERLAP>  (1) 
932.176

>  <PUBCHEM_SHAPE_VOLUME>  (1) 
280.1

>  <PUBCHEM_COORDINATE_TYPE>  (1) 
2
5
10

$$$$
