48720
     RDKit          3D

 17 18  0  0  0  0  0  0  0  0999 V2000
   -2.9133    1.6863    1.3071 O   0  0  0  0  0  0  0  0  0  0  0  0
    1.1704   -3.4240    0.9498 N   0  0  0  0  0  0  0  0  0  0  0  0
    0.4999   -1.6505    0.0395 C   0  0  0  0  0  0  0  0  0  0  0  0
    0.6607   -2.1384    1.4862 C   0  0  0  0  0  0  0  0  0  0  0  0
    0.4355   -3.1445   -0.3081 C   0  0  0  0  0  0  0  0  0  0  0  0
    1.7524   -0.9752   -0.4963 C   0  0  0  0  0  0  0  0  0  0  0  0
   -0.7125   -0.7740   -0.2997 C   0  0  0  0  0  0  0  0  0  0  0  0
    1.9730    0.3913    0.1520 C   0  0  0  0  0  0  0  0  0  0  0  0
    3.2518    1.0522   -0.3649 C   0  0  0  0  0  0  0  0  0  0  0  0
   -1.2750    0.0724    0.6680 C   0  0  0  0  0  0  0  0  0  0  0  0
   -1.2786   -0.8039   -1.5835 C   0  0  0  0  0  0  0  0  0  0  0  0
    3.4550    2.4331    0.2581 C   0  0  0  0  0  0  0  0  0  0  0  0
   -2.3772    0.8698    0.3594 C   0  0  0  0  0  0  0  0  0  0  0  0
   -2.3806   -0.0068   -1.8921 C   0  0  0  0  0  0  0  0  0  0  0  0
   -2.9299    0.8302   -0.9208 C   0  0  0  0  0  0  0  0  0  0  0  0
    4.7076    3.1074   -0.2783 C   0  0  0  0  0  0  0  0  0  0  0  0
   -4.0392    2.4745    0.9236 C   0  0  0  0  0  0  0  0  0  0  0  0
  1 13  1  0
  1 17  1  0
  2  4  1  0
  2  5  1  0
  3  4  1  0
  3  5  1  0
  3  6  1  0
  3  7  1  0
  6  8  1  0
  7 10  2  0
  7 11  1  0
  8  9  1  0
  9 12  1  0
 10 13  1  0
 11 14  2  0
 12 16  1  0
 13 15  2  0
 14 15  1  0
M  END
>  <PUBCHEM_COMPOUND_CID>  (1) 
48720

>  <PUBCHEM_CONFORMER_RMSD>  (1) 
0.8

>  <PUBCHEM_CONFORMER_DIVERSEORDER>  (1) 
1
63
36
54
22
20
24
32
19
52
43
60
55
6
59
47
57
42
44
21
40
33
64
11
50
61
4
56
51
23
25
29
41
16
15
35
39
53
5
37
17
38
7
62
14
58
8
49
18
46
27
3
34
13
31
28
26
48
45
12
2
9
30
10

>  <PUBCHEM_MMFF94_PARTIAL_CHARGES>  (1) 
17
1 -0.36
10 -0.15
11 -0.15
13 0.08
14 -0.15
15 -0.15
17 0.28
2 -0.78
24 0.36
29 0.15
3 0.11
30 0.15
33 0.15
34 0.15
4 0.21
5 0.21
7 -0.11

>  <PUBCHEM_EFFECTIVE_ROTOR_COUNT>  (1) 
6.8

>  <PUBCHEM_PHARMACOPHORE_FEATURES>  (1) 
7
1 1 acceptor
1 16 hydrophobe
1 2 cation
1 2 donor
4 2 3 4 5 rings
4 6 8 9 12 hydrophobe
6 7 10 11 13 14 15 rings

>  <PUBCHEM_HEAVY_ATOM_COUNT>  (1) 
17

>  <PUBCHEM_ATOM_DEF_STEREO_COUNT>  (1) 
0

>  <PUBCHEM_ATOM_UDEF_STEREO_COUNT>  (1) 
0

>  <PUBCHEM_BOND_DEF_STEREO_COUNT>  (1) 
0

>  <PUBCHEM_BOND_UDEF_STEREO_COUNT>  (1) 
0

>  <PUBCHEM_ISOTOPIC_ATOM_COUNT>  (1) 
0

>  <PUBCHEM_COMPONENT_COUNT>  (1) 
1

>  <PUBCHEM_CACTVS_TAUTO_COUNT>  (1) 
1

>  <PUBCHEM_CONFORMER_ID>  (1) 
0000BE5000000001

>  <PUBCHEM_MMFF94_ENERGY>  (1) 
48.7511

>  <PUBCHEM_FEATURE_SELFOVERLAP>  (1) 
35.52

>  <PUBCHEM_SHAPE_FINGERPRINT>  (1) 
10291535 26 17911516816273233488
10382601 240 18262805047191479848
11640471 11 18201147772152862013
11725454 13 16301156525185533287
12173636 292 18267030629227360052
12788726 201 17832973224501768762
13134695 92 17612293174568321774
13140716 1 18334861601936759202
13583140 156 17901959539298042561
14123250 116 18197776807078327636
14142880 1 18190176969790453365
14251764 38 17626654261523283992
14787075 74 18124027095047568927
14817 1 17687783783057472382
14955137 171 18050294669796478794
15342168 16 18335427888842905957
15534591 1 18201161039190560876
16945 1 18120087282422873807
17357990 137 17771902732068433983
1741750 31 18265894847070209168
1813 80 17335340433301135262
18785283 64 18187938231235909898
19765921 60 18272652354749312016
20510252 161 17975688708299693074
20539784 86 17899148117460527971
20645476 183 17916298330317297095
21041028 32 17471013579851657498
21524375 3 18411129273268383838
21731228 192 18187086195476003696
22182937 141 18121223335938378656
2255824 54 18196651800271520503
22907989 373 17690281934006183340
23557571 272 17690566703444076636
23558518 356 18264215879624076158
25 1 18338808827305774350
283562 15 18120369019493037075
31174 14 17900269606662479515
3286 77 17391368312142308451
394222 165 18270125599703330529
4175511 71 17619912759914979903
474 4 18410286987031641656
495365 180 16952803953229360527
56616090 278 18053967076928714313
5939293 188 17476369300642784648
6049 1 17026008316198689439
633830 44 18342179951331340380
7615 1 17914026739230780821
81228 2 17610633281562164186
84936 182 18272080591787035632
88987 49 16557314078625504183

>  <PUBCHEM_SHAPE_MULTIPOLES>  (1) 
339
6.66
3.92
1.41
4.28
1.34
0.22
-9.84
0.11
2.14
-1.26
-1.13
0.18
-1.32

>  <PUBCHEM_SHAPE_SELFOVERLAP>  (1) 
693.044

>  <PUBCHEM_SHAPE_VOLUME>  (1) 
198.7

>  <PUBCHEM_COORDINATE_TYPE>  (1) 
2
5
10

$$$$
