48723
     RDKit          3D

 17 17  0  0  0  0  0  0  0  0999 V2000
    0.0887    0.1354    2.1086 O   0  0  0  0  0  0  0  0  0  0  0  0
   -0.5688    0.3372   -2.5364 O   0  0  0  0  0  0  0  0  0  0  0  0
   -3.7325   -1.5449    0.2029 O   0  0  0  0  0  0  0  0  0  0  0  0
   -1.8632   -0.6139    1.1645 N   0  0  0  0  0  0  0  0  0  0  0  0
   -2.1913   -0.5136   -1.1560 N   0  0  0  0  0  0  0  0  0  0  0  0
   -0.3866    0.8228   -0.1677 C   0  0  0  0  0  0  0  0  0  0  0  0
    1.1294    0.9498   -0.3767 C   0  0  0  0  0  0  0  0  0  0  0  0
    1.8540   -0.4016   -0.5668 C   0  0  0  0  0  0  0  0  0  0  0  0
   -0.9991    2.2271   -0.0202 C   0  0  0  0  0  0  0  0  0  0  0  0
    3.3420   -0.1290   -0.8814 C   0  0  0  0  0  0  0  0  0  0  0  0
    1.6431   -1.3830    0.6065 C   0  0  0  0  0  0  0  0  0  0  0  0
   -0.6610    0.0768    1.1343 C   0  0  0  0  0  0  0  0  0  0  0  0
   -1.0196    0.1868   -1.4012 C   0  0  0  0  0  0  0  0  0  0  0  0
   -0.3545    2.9814    1.1209 C   0  0  0  0  0  0  0  0  0  0  0  0
    4.1041    0.5364    0.2556 C   0  0  0  0  0  0  0  0  0  0  0  0
    2.2931   -2.7485    0.4320 C   0  0  0  0  0  0  0  0  0  0  0  0
   -2.6780   -0.9192    0.0809 C   0  0  0  0  0  0  0  0  0  0  0  0
  1 12  2  0
  2 13  2  0
  3 17  2  0
  4 12  1  0
  4 17  1  0
  5 13  1  0
  5 17  1  0
  6  7  1  0
  6  9  1  0
  6 12  1  0
  6 13  1  0
  7  8  1  0
  8 10  1  0
  8 11  1  0
  9 14  1  0
 10 15  1  0
 11 16  1  0
M  END
>  <PUBCHEM_COMPOUND_CID>  (1) 
48723

>  <PUBCHEM_CONFORMER_RMSD>  (1) 
0.8

>  <PUBCHEM_CONFORMER_DIVERSEORDER>  (1) 
1
2
3

>  <PUBCHEM_MMFF94_PARTIAL_CHARGES>  (1) 
11
1 -0.57
12 0.57
13 0.57
17 0.69
2 -0.57
3 -0.57
36 0.37
37 0.37
4 -0.49
5 -0.49
6 0.12

>  <PUBCHEM_EFFECTIVE_ROTOR_COUNT>  (1) 
5.6

>  <PUBCHEM_PHARMACOPHORE_FEATURES>  (1) 
10
1 1 acceptor
1 14 hydrophobe
1 15 hydrophobe
1 16 hydrophobe
1 2 acceptor
1 3 acceptor
1 4 donor
1 5 donor
4 7 8 10 11 hydrophobe
6 4 5 6 12 13 17 rings

>  <PUBCHEM_HEAVY_ATOM_COUNT>  (1) 
17

>  <PUBCHEM_ATOM_DEF_STEREO_COUNT>  (1) 
0

>  <PUBCHEM_ATOM_UDEF_STEREO_COUNT>  (1) 
0

>  <PUBCHEM_BOND_DEF_STEREO_COUNT>  (1) 
0

>  <PUBCHEM_BOND_UDEF_STEREO_COUNT>  (1) 
0

>  <PUBCHEM_ISOTOPIC_ATOM_COUNT>  (1) 
0

>  <PUBCHEM_COMPONENT_COUNT>  (1) 
1

>  <PUBCHEM_CACTVS_TAUTO_COUNT>  (1) 
5

>  <PUBCHEM_CONFORMER_ID>  (1) 
0000BE5300000001

>  <PUBCHEM_MMFF94_ENERGY>  (1) 
52.0387

>  <PUBCHEM_FEATURE_SELFOVERLAP>  (1) 
50.844

>  <PUBCHEM_SHAPE_FINGERPRINT>  (1) 
10702982 57 17543061286758825461
10863032 1 18338797788865296605
11315181 36 14273455899610647940
11578080 2 17201890761449068705
12011746 2 14548748300013793545
12403814 3 17704067413147536960
12423570 1 8777171771524493597
13024252 1 18187092719215029597
13299463 15 17676204680123616478
13538477 17 18195248806507576340
14787075 74 18123470746342583668
14817 1 11256230820465628889
15207287 21 17458625665893691202
15852999 172 17240760679671536986
15906896 17 17840865170799033773
16945 1 18041010573545730281
19010151 120 18199765776120083177
200 152 18334574650908407494
20201158 50 17822014237108789042
20344682 1 17604428621339822910
20473742 2 18047748496786295533
20525323 117 18261960652426001520
21061003 4 18339918341453648057
21296965 67 18341054102837413389
21501502 16 18117003178493198522
21524375 3 17121131361684837328
23402539 116 16733249201875926542
23419403 2 17610575969249333320
353137 74 16298372548832747535
568465 68 18043825387858860818
598444 67 14261085246044802702

>  <PUBCHEM_SHAPE_MULTIPOLES>  (1) 
322.28
4.86
2.4
1.63
2.5
0.65
-0.37
-2.09
-0.18
-0.18
0.86
-0.43
0.15
-0.25

>  <PUBCHEM_SHAPE_SELFOVERLAP>  (1) 
651.502

>  <PUBCHEM_SHAPE_VOLUME>  (1) 
185.8

>  <PUBCHEM_COORDINATE_TYPE>  (1) 
2
5
10

$$$$
