48746
     RDKit          3D

 18 18  0  0  1  0  0  0  0  0999 V2000
    2.3683    0.1721    0.9347 S   0  0  0  0  0  0  0  0  0  0  0  0
    0.2479   -1.5655    1.4922 O   0  0  0  0  0  0  0  0  0  0  0  0
   -0.9937    1.5890   -1.7569 O   0  0  0  0  0  0  0  0  0  0  0  0
   -4.1745   -0.7671    0.5641 O   0  0  0  0  0  0  0  0  0  0  0  0
   -1.9619   -1.0935    1.0969 N   0  0  0  0  0  0  0  0  0  0  0  0
   -2.5822    0.4819   -0.5266 N   0  0  0  0  0  0  0  0  0  0  0  0
   -0.2580    0.4602    0.2592 C   0  0  0  0  0  0  0  0  0  0  0  0
    1.1240    0.3281   -0.3972 C   0  0  0  0  0  0  0  0  0  0  0  0
    1.1643   -0.8056   -1.4507 C   0  0  0  0  0  0  0  0  0  0  0  0
   -0.2122    1.5729    1.3216 C   0  0  0  0  0  0  0  0  0  0  0  0
   -0.6038   -0.8363    0.9847 C   0  0  0  0  0  0  0  0  0  0  0  0
   -1.2814    0.8854   -0.7890 C   0  0  0  0  0  0  0  0  0  0  0  0
    0.9301   -2.1835   -0.8193 C   0  0  0  0  0  0  0  0  0  0  0  0
    0.2118   -0.6122   -2.6358 C   0  0  0  0  0  0  0  0  0  0  0  0
    0.0936    2.9121    0.6897 C   0  0  0  0  0  0  0  0  0  0  0  0
    3.8351    0.0386   -0.1097 C   0  0  0  0  0  0  0  0  0  0  0  0
   -2.9902   -0.4680    0.4020 C   0  0  0  0  0  0  0  0  0  0  0  0
    5.0827   -0.1086    0.7402 C   0  0  0  0  0  0  0  0  0  0  0  0
  1  8  1  0
  1 16  1  0
  2 11  2  0
  3 12  2  0
  4 17  2  0
  5 11  1  0
  5 17  1  0
  6 12  1  0
  6 17  1  0
  7  8  1  0
  7 10  1  0
  7 11  1  0
  7 12  1  0
  8  9  1  0
  9 13  1  0
  9 14  1  0
 10 15  1  0
 16 18  1  0
M  END
>  <PUBCHEM_COMPOUND_CID>  (1) 
48746

>  <PUBCHEM_CONFORMER_RMSD>  (1) 
0.8

>  <PUBCHEM_CONFORMER_DIVERSEORDER>  (1) 
1
2

>  <PUBCHEM_MMFF94_PARTIAL_CHARGES>  (1) 
14
1 -0.46
11 0.57
12 0.57
16 0.23
17 0.69
2 -0.57
3 -0.57
32 0.37
33 0.37
4 -0.57
5 -0.49
6 -0.49
7 0.12
8 0.23

>  <PUBCHEM_EFFECTIVE_ROTOR_COUNT>  (1) 
5.6

>  <PUBCHEM_PHARMACOPHORE_FEATURES>  (1) 
10
1 15 hydrophobe
1 18 hydrophobe
1 2 acceptor
1 3 acceptor
1 4 acceptor
1 5 donor
1 6 donor
3 9 13 14 hydrophobe
4 1 8 9 16 hydrophobe
6 5 6 7 11 12 17 rings

>  <PUBCHEM_HEAVY_ATOM_COUNT>  (1) 
18

>  <PUBCHEM_ATOM_DEF_STEREO_COUNT>  (1) 
0

>  <PUBCHEM_ATOM_UDEF_STEREO_COUNT>  (1) 
1

>  <PUBCHEM_BOND_DEF_STEREO_COUNT>  (1) 
0

>  <PUBCHEM_BOND_UDEF_STEREO_COUNT>  (1) 
0

>  <PUBCHEM_ISOTOPIC_ATOM_COUNT>  (1) 
0

>  <PUBCHEM_COMPONENT_COUNT>  (1) 
1

>  <PUBCHEM_CACTVS_TAUTO_COUNT>  (1) 
5

>  <PUBCHEM_CONFORMER_ID>  (1) 
0000BE6A00000001

>  <PUBCHEM_MMFF94_ENERGY>  (1) 
81.1541

>  <PUBCHEM_FEATURE_SELFOVERLAP>  (1) 
50.855

>  <PUBCHEM_SHAPE_FINGERPRINT>  (1) 
10863032 1 18043800992465503860
12119455 92 17704351069941091338
12403814 3 17274533248580741584
12423570 1 14249342500652400481
13024252 1 18114170930870942428
13214271 11 17988642965061054705
144361 1 13298494040291709871
14787075 74 18263080066927088810
15207287 21 18409452517709380563
15219456 202 18269557152323872334
15309172 13 17632574951006416118
16945 1 18343023336815894421
19010151 120 17967822651600700720
20473742 2 18199179783809764301
20511035 2 17687479261412461771
20600515 1 18261409865572153013
21061003 4 18201715175913639833
21501502 16 17842004290720377410
23402539 116 18343576343703754131
23419403 2 18117258453716087069
23493267 7 18266447711965828360
23557571 272 18262247620333580735
23559900 14 18188214174574714470
2748010 2 17272576015041624676
3250762 1 17554906372832572772
3286 77 18198058282176013385
528886 8 17417800742934489428
568465 68 18269569375758631411
81228 2 17980797889557125345

>  <PUBCHEM_SHAPE_MULTIPOLES>  (1) 
346.71
5.49
2.07
1.77
4.04
0.72
-0.46
-0.15
1.96
0.21
-0.54
-0.55
-0.47
0.48

>  <PUBCHEM_SHAPE_SELFOVERLAP>  (1) 
696.129

>  <PUBCHEM_SHAPE_VOLUME>  (1) 
205.9

>  <PUBCHEM_COORDINATE_TYPE>  (1) 
2
5
10

$$$$
