48753
     RDKit          3D

 17 17  0  0  0  0  0  0  0  0999 V2000
   -1.0929   -0.6397    0.0615 O   0  0  0  0  0  0  0  0  0  0  0  0
    1.8498   -0.5794    2.2569 O   0  0  0  0  0  0  0  0  0  0  0  0
    1.6424   -0.0418   -2.4034 O   0  0  0  0  0  0  0  0  0  0  0  0
   -0.1704    3.1014    0.4057 O   0  0  0  0  0  0  0  0  0  0  0  0
    0.7547    1.2095    1.3280 N   0  0  0  0  0  0  0  0  0  0  0  0
    0.6504    1.4778   -0.9999 N   0  0  0  0  0  0  0  0  0  0  0  0
    1.2926   -0.7122   -0.0994 C   0  0  0  0  0  0  0  0  0  0  0  0
    2.4890   -1.6610   -0.2621 C   0  0  0  0  0  0  0  0  0  0  0  0
   -0.0121   -1.5281   -0.1352 C   0  0  0  0  0  0  0  0  0  0  0  0
    1.3596   -0.0370    1.2668 C   0  0  0  0  0  0  0  0  0  0  0  0
    1.2462    0.2564   -1.2769 C   0  0  0  0  0  0  0  0  0  0  0  0
   -2.3459   -1.3168    0.0425 C   0  0  0  0  0  0  0  0  0  0  0  0
   -3.4843   -0.3125    0.2421 C   0  0  0  0  0  0  0  0  0  0  0  0
    3.7956   -0.9124   -0.1251 C   0  0  0  0  0  0  0  0  0  0  0  0
    0.3586    1.9988    0.2549 C   0  0  0  0  0  0  0  0  0  0  0  0
   -3.5069    0.7337   -0.8743 C   0  0  0  0  0  0  0  0  0  0  0  0
   -4.8266   -1.0368    0.3179 C   0  0  0  0  0  0  0  0  0  0  0  0
  1  9  1  0
  1 12  1  0
  2 10  2  0
  3 11  2  0
  4 15  2  0
  5 10  1  0
  5 15  1  0
  6 11  1  0
  6 15  1  0
  7  8  1  0
  7  9  1  0
  7 10  1  0
  7 11  1  0
  8 14  1  0
 12 13  1  0
 13 16  1  0
 13 17  1  0
M  END
>  <PUBCHEM_COMPOUND_CID>  (1) 
48753

>  <PUBCHEM_CONFORMER_RMSD>  (1) 
0.8

>  <PUBCHEM_CONFORMER_DIVERSEORDER>  (1) 
1
7
8
3
2
9
5
10
6
4
11

>  <PUBCHEM_MMFF94_PARTIAL_CHARGES>  (1) 
14
1 -0.56
10 0.57
11 0.57
12 0.28
15 0.69
2 -0.57
28 0.37
29 0.37
3 -0.57
4 -0.57
5 -0.49
6 -0.49
7 0.12
9 0.28

>  <PUBCHEM_EFFECTIVE_ROTOR_COUNT>  (1) 
5.6

>  <PUBCHEM_PHARMACOPHORE_FEATURES>  (1) 
9
1 1 acceptor
1 14 hydrophobe
1 2 acceptor
1 3 acceptor
1 4 acceptor
1 5 donor
1 6 donor
3 13 16 17 hydrophobe
6 5 6 7 10 11 15 rings

>  <PUBCHEM_HEAVY_ATOM_COUNT>  (1) 
17

>  <PUBCHEM_ATOM_DEF_STEREO_COUNT>  (1) 
0

>  <PUBCHEM_ATOM_UDEF_STEREO_COUNT>  (1) 
0

>  <PUBCHEM_BOND_DEF_STEREO_COUNT>  (1) 
0

>  <PUBCHEM_BOND_UDEF_STEREO_COUNT>  (1) 
0

>  <PUBCHEM_ISOTOPIC_ATOM_COUNT>  (1) 
0

>  <PUBCHEM_COMPONENT_COUNT>  (1) 
1

>  <PUBCHEM_CACTVS_TAUTO_COUNT>  (1) 
5

>  <PUBCHEM_CONFORMER_ID>  (1) 
0000BE7100000001

>  <PUBCHEM_MMFF94_ENERGY>  (1) 
39.4206

>  <PUBCHEM_FEATURE_SELFOVERLAP>  (1) 
45.713

>  <PUBCHEM_SHAPE_FINGERPRINT>  (1) 
104564 63 18053102822234634583
12423570 1 11750935328723058600
12725867 57 18272652350491157056
13132413 78 18341610464369012052
13134695 92 17418369190488247994
13464514 151 18122358023047609196
14344429 50 18337107968432042547
14817 1 16813424416894177625
16945 1 16826999859729740926
17357779 13 18129932369830831741
20233049 118 18333447625524779143
20279233 1 9439404644870240179
20339313 130 18412835689407920211
20511035 2 17415552387906576494
20559304 39 18334574672504628187
20671657 1 18198910408051098217
21130352 189 18342452642952003411
21524375 3 17049924205625798425
22892500 29 16844711088992258459
23419403 2 18116685522780688324
3286 77 18335982056194361647
7364860 26 18267585895452536265
74978 22 18340771567346899335
81228 2 17912669932822776104

>  <PUBCHEM_SHAPE_MULTIPOLES>  (1) 
316.41
6.11
2.15
1.51
7.22
1.61
0.06
-2.97
0.12
-0.14
-0.21
-1.09
0.15
0.25

>  <PUBCHEM_SHAPE_SELFOVERLAP>  (1) 
639.548

>  <PUBCHEM_SHAPE_VOLUME>  (1) 
183

>  <PUBCHEM_COORDINATE_TYPE>  (1) 
2
5
10

$$$$
