48754
     RDKit          3D

 16 16  0  0  1  0  0  0  0  0999 V2000
   -0.0645    1.9560   -0.9066 O   0  0  0  0  0  0  0  0  0  0  0  0
   -1.1179   -2.1309    0.9999 O   0  0  0  0  0  0  0  0  0  0  0  0
    3.1945   -1.2965   -0.2853 O   0  0  0  0  0  0  0  0  0  0  0  0
    1.6548    0.4496   -0.4652 N   0  0  0  0  0  0  0  0  0  0  0  0
    1.0487   -1.6616    0.4099 N   0  0  0  0  0  0  0  0  0  0  0  0
   -0.5128    0.1936    0.6809 C   0  0  0  0  0  0  0  0  0  0  0  0
   -1.9994    0.4574    0.3940 C   0  0  0  0  0  0  0  0  0  0  0  0
   -2.4409   -0.0353   -0.9887 C   0  0  0  0  0  0  0  0  0  0  0  0
   -0.1686    0.7322    2.0814 C   0  0  0  0  0  0  0  0  0  0  0  0
    0.3514    0.9529   -0.3239 C   0  0  0  0  0  0  0  0  0  0  0  0
   -0.2590   -1.3048    0.6946 C   0  0  0  0  0  0  0  0  0  0  0  0
   -1.6388    0.6021   -2.1241 C   0  0  0  0  0  0  0  0  0  0  0  0
   -2.3048   -1.5585   -1.0511 C   0  0  0  0  0  0  0  0  0  0  0  0
   -0.4250    2.2198    2.1667 C   0  0  0  0  0  0  0  0  0  0  0  0
    2.0562   -0.8530   -0.1116 C   0  0  0  0  0  0  0  0  0  0  0  0
    2.6261    1.2773   -1.1707 C   0  0  0  0  0  0  0  0  0  0  0  0
  1 10  2  0
  2 11  2  0
  3 15  2  0
  4 10  1  0
  4 15  1  0
  4 16  1  0
  5 11  1  0
  5 15  1  0
  6  7  1  0
  6  9  1  0
  6 10  1  0
  6 11  1  0
  7  8  1  0
  8 12  1  0
  8 13  1  0
  9 14  1  0
M  END
>  <PUBCHEM_COMPOUND_CID>  (1) 
48754

>  <PUBCHEM_CONFORMER_RMSD>  (1) 
0.6

>  <PUBCHEM_CONFORMER_DIVERSEORDER>  (1) 
1
2

>  <PUBCHEM_MMFF94_PARTIAL_CHARGES>  (1) 
11
1 -0.57
10 0.57
11 0.57
15 0.69
16 0.3
2 -0.57
3 -0.57
31 0.37
4 -0.42
5 -0.49
6 0.12

>  <PUBCHEM_EFFECTIVE_ROTOR_COUNT>  (1) 
3.6

>  <PUBCHEM_PHARMACOPHORE_FEATURES>  (1) 
7
1 1 acceptor
1 14 hydrophobe
1 2 acceptor
1 3 acceptor
1 5 donor
3 8 12 13 hydrophobe
6 4 5 6 10 11 15 rings

>  <PUBCHEM_HEAVY_ATOM_COUNT>  (1) 
16

>  <PUBCHEM_ATOM_DEF_STEREO_COUNT>  (1) 
0

>  <PUBCHEM_ATOM_UDEF_STEREO_COUNT>  (1) 
1

>  <PUBCHEM_BOND_DEF_STEREO_COUNT>  (1) 
0

>  <PUBCHEM_BOND_UDEF_STEREO_COUNT>  (1) 
0

>  <PUBCHEM_ISOTOPIC_ATOM_COUNT>  (1) 
0

>  <PUBCHEM_COMPONENT_COUNT>  (1) 
1

>  <PUBCHEM_CACTVS_TAUTO_COUNT>  (1) 
3

>  <PUBCHEM_CONFORMER_ID>  (1) 
0000BE7200000001

>  <PUBCHEM_MMFF94_ENERGY>  (1) 
71.7005

>  <PUBCHEM_FEATURE_SELFOVERLAP>  (1) 
35.522

>  <PUBCHEM_SHAPE_FINGERPRINT>  (1) 
10702982 57 16981531897833349009
12326174 3 16842461651415893025
12423570 1 11035571377953976113
13024252 1 14129643058923640746
13299463 15 18261379066546348399
141345 1 16552318898199654993
144361 1 17754444978526691511
14617773 55 18201171953013787432
14817 1 14144454348301969441
15906896 17 17771376126075368393
16945 1 17974865165225916379
22802520 49 17970906897796884487
23419403 2 17910942870701679488
25 1 16953088704649069853
2748010 2 18115604775696262094
4175511 376 17412707921081205809
528886 8 18042678417005812073
53812653 217 17701851845334972080
54276843 12 18126566721798956003
5845 1 12011491542147920481
81228 2 16916512436812737265

>  <PUBCHEM_SHAPE_MULTIPOLES>  (1) 
301.7
3.37
2.17
1.91
1.25
0.8
-0.31
-1.51
-1.44
-0.07
1.05
-0.34
0.47
-0.41

>  <PUBCHEM_SHAPE_SELFOVERLAP>  (1) 
623.44

>  <PUBCHEM_SHAPE_VOLUME>  (1) 
171

>  <PUBCHEM_COORDINATE_TYPE>  (1) 
2
5
10

$$$$
