48759
     RDKit          3D

 19 19  0  0  1  0  0  0  0  0999 V2000
   -0.7887   -0.1190   -0.1105 O   0  0  0  0  0  0  0  0  0  0  0  0
    2.0875   -0.8155    2.1572 O   0  0  0  0  0  0  0  0  0  0  0  0
    2.0643    0.1012   -2.4482 O   0  0  0  0  0  0  0  0  0  0  0  0
    0.8574    3.3191    0.5925 O   0  0  0  0  0  0  0  0  0  0  0  0
    1.3790    1.2184    1.3675 N   0  0  0  0  0  0  0  0  0  0  0  0
    1.3667    1.6763   -0.9331 N   0  0  0  0  0  0  0  0  0  0  0  0
    1.5530   -0.6586   -0.2029 C   0  0  0  0  0  0  0  0  0  0  0  0
    0.1145   -1.1972   -0.3026 C   0  0  0  0  0  0  0  0  0  0  0  0
    2.5428   -1.8091   -0.4369 C   0  0  0  0  0  0  0  0  0  0  0  0
    1.7291   -0.1144    1.2113 C   0  0  0  0  0  0  0  0  0  0  0  0
    1.7161    0.3859   -1.3025 C   0  0  0  0  0  0  0  0  0  0  0  0
   -0.1451   -2.2739    0.7321 C   0  0  0  0  0  0  0  0  0  0  0  0
   -2.1416   -0.5490   -0.1906 C   0  0  0  0  0  0  0  0  0  0  0  0
   -3.0505    0.6552    0.0243 C   0  0  0  0  0  0  0  0  0  0  0  0
    3.9684   -1.3443   -0.2415 C   0  0  0  0  0  0  0  0  0  0  0  0
   -4.5490    0.3152   -0.0190 C   0  0  0  0  0  0  0  0  0  0  0  0
    1.1625    2.1486    0.3578 C   0  0  0  0  0  0  0  0  0  0  0  0
   -4.9003   -0.3151   -1.3686 C   0  0  0  0  0  0  0  0  0  0  0  0
   -4.9661   -0.6237    1.1138 C   0  0  0  0  0  0  0  0  0  0  0  0
  1  8  1  0
  1 13  1  0
  2 10  2  0
  3 11  2  0
  4 17  2  0
  5 10  1  0
  5 17  1  0
  6 11  1  0
  6 17  1  0
  7  8  1  0
  7  9  1  0
  7 10  1  0
  7 11  1  0
  8 12  1  0
  9 15  1  0
 13 14  1  0
 14 16  1  0
 16 18  1  0
 16 19  1  0
M  END
>  <PUBCHEM_COMPOUND_CID>  (1) 
48759

>  <PUBCHEM_CONFORMER_RMSD>  (1) 
0.8

>  <PUBCHEM_CONFORMER_DIVERSEORDER>  (1) 
1
22
11
3
16
19
12
21
4
18
6
17
23
15
9
14
10
2
20
13
7
8
5

>  <PUBCHEM_MMFF94_PARTIAL_CHARGES>  (1) 
14
1 -0.56
10 0.57
11 0.57
13 0.28
17 0.69
2 -0.57
3 -0.57
34 0.37
35 0.37
4 -0.57
5 -0.49
6 -0.49
7 0.12
8 0.28

>  <PUBCHEM_EFFECTIVE_ROTOR_COUNT>  (1) 
6.6

>  <PUBCHEM_PHARMACOPHORE_FEATURES>  (1) 
9
1 1 acceptor
1 15 hydrophobe
1 2 acceptor
1 3 acceptor
1 4 acceptor
1 5 donor
1 6 donor
3 16 18 19 hydrophobe
6 5 6 7 10 11 17 rings

>  <PUBCHEM_HEAVY_ATOM_COUNT>  (1) 
19

>  <PUBCHEM_ATOM_DEF_STEREO_COUNT>  (1) 
0

>  <PUBCHEM_ATOM_UDEF_STEREO_COUNT>  (1) 
1

>  <PUBCHEM_BOND_DEF_STEREO_COUNT>  (1) 
0

>  <PUBCHEM_BOND_UDEF_STEREO_COUNT>  (1) 
0

>  <PUBCHEM_ISOTOPIC_ATOM_COUNT>  (1) 
0

>  <PUBCHEM_COMPONENT_COUNT>  (1) 
1

>  <PUBCHEM_CACTVS_TAUTO_COUNT>  (1) 
5

>  <PUBCHEM_CONFORMER_ID>  (1) 
0000BE7700000001

>  <PUBCHEM_MMFF94_ENERGY>  (1) 
52.0593

>  <PUBCHEM_FEATURE_SELFOVERLAP>  (1) 
45.713

>  <PUBCHEM_SHAPE_FINGERPRINT>  (1) 
10366900 7 18040431063021465435
12596599 1 17632584859833474367
12725867 57 18201436943990353460
13134695 92 18340197501448131279
13224815 77 18340485690281742487
13464514 151 18268720591679559804
14344429 50 18409163324744607968
16945 1 17968392186271743566
17980427 23 17484766597361150536
18186145 218 18202288022157181863
19078846 21 18190454970376024361
20233049 118 18261673683932911572
20559304 39 18409448064102107433
20671657 1 18272088361287739837
21503847 285 18130804338797657465
2255824 54 18272936050440340391
23402539 116 18059569118626247598
23419403 2 17609171803123185268
3052486 1 18196095438834939337
3060560 45 18272081678403302967
3286 77 18408885131497380149
54040823 5 18342751727532011222
633830 44 18272096028463622749
7364860 26 18341048618090388304
7495541 125 18336280027934929267
9971528 1 18201428156212952819

>  <PUBCHEM_SHAPE_MULTIPOLES>  (1) 
357.57
7.78
2.3
1.58
12.73
1.47
0.16
-2.03
0.73
-1.69
-0.5
-0.63
0.01
0.15

>  <PUBCHEM_SHAPE_SELFOVERLAP>  (1) 
723.242

>  <PUBCHEM_SHAPE_VOLUME>  (1) 
206.8

>  <PUBCHEM_COORDINATE_TYPE>  (1) 
2
5
10

$$$$
