48751
     RDKit          3D

 16 16  0  0  1  0  0  0  0  0999 V2000
    1.1489    2.4103    0.8189 O   0  0  0  0  0  0  0  0  0  0  0  0
    0.1792   -1.2584   -1.8859 O   0  0  0  0  0  0  0  0  0  0  0  0
    2.4099    0.4923    0.8575 N   0  0  0  0  0  0  0  0  0  0  0  0
    1.8469   -1.4510   -0.3459 N   0  0  0  0  0  0  0  0  0  0  0  0
    3.7738   -1.3913    0.9765 N   0  0  0  0  0  0  0  0  0  0  0  0
    0.1943    0.3925   -0.1337 C   0  0  0  0  0  0  0  0  0  0  0  0
   -0.5937    1.2901   -1.1000 C   0  0  0  0  0  0  0  0  0  0  0  0
   -0.7447   -0.1280    0.9648 C   0  0  0  0  0  0  0  0  0  0  0  0
    1.2828    1.2222    0.5328 C   0  0  0  0  0  0  0  0  0  0  0  0
    0.7458   -0.8233   -0.8843 C   0  0  0  0  0  0  0  0  0  0  0  0
    0.2797    1.7560   -2.2443 C   0  0  0  0  0  0  0  0  0  0  0  0
   -1.9339   -0.8112    0.3675 C   0  0  0  0  0  0  0  0  0  0  0  0
    2.6414   -0.8146    0.4641 C   0  0  0  0  0  0  0  0  0  0  0  0
   -3.2283   -0.4579    0.4817 C   0  0  0  0  0  0  0  0  0  0  0  0
   -4.3824   -1.1881   -0.1448 C   0  0  0  0  0  0  0  0  0  0  0  0
   -3.6196    0.7603    1.2750 C   0  0  0  0  0  0  0  0  0  0  0  0
  1  9  2  0
  2 10  2  0
  3  9  1  0
  3 13  1  0
  4 10  1  0
  4 13  2  0
  5 13  1  0
  6  7  1  0
  6  8  1  0
  6  9  1  0
  6 10  1  0
  7 11  1  0
  8 12  1  0
 12 14  2  3
 14 15  1  0
 14 16  1  0
M  END
>  <PUBCHEM_COMPOUND_CID>  (1) 
48751

>  <PUBCHEM_CONFORMER_RMSD>  (1) 
0.6

>  <PUBCHEM_CONFORMER_DIVERSEORDER>  (1) 
6
7
12
3
20
18
11
5
19
16
8
15
4
17
14
13
21
22
10
1
2
9

>  <PUBCHEM_MMFF94_PARTIAL_CHARGES>  (1) 
18
1 -0.57
10 0.72
12 -0.29
13 0.56
14 -0.28
15 0.14
16 0.14
2 -0.57
24 0.15
25 0.37
3 -0.49
32 0.4
33 0.4
4 -0.66
5 -0.85
6 0.12
8 0.14
9 0.57

>  <PUBCHEM_EFFECTIVE_ROTOR_COUNT>  (1) 
3.4

>  <PUBCHEM_PHARMACOPHORE_FEATURES>  (1) 
8
1 1 acceptor
1 11 hydrophobe
1 2 acceptor
1 3 donor
1 4 donor
1 5 donor
3 14 15 16 hydrophobe
6 3 4 6 9 10 13 rings

>  <PUBCHEM_HEAVY_ATOM_COUNT>  (1) 
16

>  <PUBCHEM_ATOM_DEF_STEREO_COUNT>  (1) 
0

>  <PUBCHEM_ATOM_UDEF_STEREO_COUNT>  (1) 
1

>  <PUBCHEM_BOND_DEF_STEREO_COUNT>  (1) 
0

>  <PUBCHEM_BOND_UDEF_STEREO_COUNT>  (1) 
0

>  <PUBCHEM_ISOTOPIC_ATOM_COUNT>  (1) 
0

>  <PUBCHEM_COMPONENT_COUNT>  (1) 
1

>  <PUBCHEM_CACTVS_TAUTO_COUNT>  (1) 
5

>  <PUBCHEM_CONFORMER_ID>  (1) 
0000BE6F00000006

>  <PUBCHEM_MMFF94_ENERGY>  (1) 
40.7893

>  <PUBCHEM_FEATURE_SELFOVERLAP>  (1) 
40.722

>  <PUBCHEM_SHAPE_FINGERPRINT>  (1) 
10922049 32 13254796849885866510
12251169 10 18201153334151380083
12725867 57 17749108932453662325
13134695 92 18336540607758601269
14178342 30 17560257820843286747
14181834 199 18337963397031541757
15375462 478 17346315964458518385
15501101 241 18408603677510345448
15848700 24 17895182320895323023
16945 1 18341608230727425210
20339313 130 17531543039216768833
20511035 2 18121792873986399795
20711985 327 18260554419966767063
21069387 34 18260546779547521555
21501502 16 18410581677680971761
21524375 3 17198828797569759145
22112679 90 17242474727630251165
23419403 2 18191279689600803876
2748010 2 17413299166906686966
276578 36 12967133800085099559
3286 77 18342167895236619585
633830 44 11095891475117641691
7364860 26 17533230888233764405
74978 22 17386298708908262987
81228 2 17532938190449538805

>  <PUBCHEM_SHAPE_MULTIPOLES>  (1) 
302.59
5.7
1.91
1.58
4.51
0.9
0.51
-3.08
-1.77
-0.92
0.38
-0.11
0.51
-0.19

>  <PUBCHEM_SHAPE_SELFOVERLAP>  (1) 
619.593

>  <PUBCHEM_SHAPE_VOLUME>  (1) 
173.1

>  <PUBCHEM_COORDINATE_TYPE>  (1) 
2
5
10

$$$$
