48771
     RDKit          3D

 14 14  0  0  0  0  0  0  0  0999 V2000
   -0.4113    2.4044   -0.0257 O   0  0  0  0  0  0  0  0  0  0  0  0
   -0.4180   -2.3883   -0.3713 O   0  0  0  0  0  0  0  0  0  0  0  0
    3.4352   -0.0430    0.4340 O   0  0  0  0  0  0  0  0  0  0  0  0
    1.4888    1.1514    0.2022 N   0  0  0  0  0  0  0  0  0  0  0  0
    1.4862   -1.1863    0.0310 N   0  0  0  0  0  0  0  0  0  0  0  0
   -0.6545    0.0088   -0.1998 C   0  0  0  0  0  0  0  0  0  0  0  0
   -1.4335    0.1009   -1.5189 C   0  0  0  0  0  0  0  0  0  0  0  0
   -1.5925   -0.0693    0.9720 C   0  0  0  0  0  0  0  0  0  0  0  0
    0.1290    1.2964   -0.0091 C   0  0  0  0  0  0  0  0  0  0  0  0
    0.1257   -1.2957   -0.1971 C   0  0  0  0  0  0  0  0  0  0  0  0
   -0.4956    0.2568   -2.6970 C   0  0  0  0  0  0  0  0  0  0  0  0
   -0.9544   -0.1020    2.3291 C   0  0  0  0  0  0  0  0  0  0  0  0
    2.2188   -0.0271    0.2372 C   0  0  0  0  0  0  0  0  0  0  0  0
   -2.9238   -0.1070    0.8134 C   0  0  0  0  0  0  0  0  0  0  0  0
  1  9  2  0
  2 10  2  0
  3 13  2  0
  4  9  1  0
  4 13  1  0
  5 10  1  0
  5 13  1  0
  6  7  1  0
  6  8  1  0
  6  9  1  0
  6 10  1  0
  7 11  1  0
  8 12  1  0
  8 14  2  0
M  END
>  <PUBCHEM_COMPOUND_CID>  (1) 
48771

>  <PUBCHEM_CONFORMER_RMSD>  (1) 
0.6

>  <PUBCHEM_CONFORMER_DIVERSEORDER>  (1) 
1
2
3
4

>  <PUBCHEM_MMFF94_PARTIAL_CHARGES>  (1) 
16
1 -0.57
10 0.57
12 0.14
13 0.69
14 -0.3
2 -0.57
20 0.37
21 0.37
25 0.15
26 0.15
3 -0.57
4 -0.49
5 -0.49
6 0.26
8 -0.28
9 0.57

>  <PUBCHEM_EFFECTIVE_ROTOR_COUNT>  (1) 
2.6

>  <PUBCHEM_PHARMACOPHORE_FEATURES>  (1) 
7
1 1 acceptor
1 11 hydrophobe
1 2 acceptor
1 3 acceptor
1 4 donor
1 5 donor
6 4 5 6 9 10 13 rings

>  <PUBCHEM_HEAVY_ATOM_COUNT>  (1) 
14

>  <PUBCHEM_ATOM_DEF_STEREO_COUNT>  (1) 
0

>  <PUBCHEM_ATOM_UDEF_STEREO_COUNT>  (1) 
0

>  <PUBCHEM_BOND_DEF_STEREO_COUNT>  (1) 
0

>  <PUBCHEM_BOND_UDEF_STEREO_COUNT>  (1) 
0

>  <PUBCHEM_ISOTOPIC_ATOM_COUNT>  (1) 
0

>  <PUBCHEM_COMPONENT_COUNT>  (1) 
1

>  <PUBCHEM_CACTVS_TAUTO_COUNT>  (1) 
5

>  <PUBCHEM_CONFORMER_ID>  (1) 
0000BE8300000001

>  <PUBCHEM_MMFF94_ENERGY>  (1) 
32.8129

>  <PUBCHEM_FEATURE_SELFOVERLAP>  (1) 
35.562

>  <PUBCHEM_SHAPE_FINGERPRINT>  (1) 
10702982 57 17846776317134711423
12423570 1 8520503306345060735
13024252 1 16081078273385282650
15557651 10 17605245498333718573
16945 1 17967541163812661985
20473742 2 18190451843666089645
20511035 2 17462594984447720523
23419403 2 17677881512950554461
2748010 2 18123749747407471734
430814 3 16987723389559217426
5084963 1 17702681955117864538
528886 8 18196909163533524325
53812654 72 18196646521809201447
68250623 7 17550094871400513365

>  <PUBCHEM_SHAPE_MULTIPOLES>  (1) 
260.54
3.08
1.93
1.67
1.53
0.83
-0.03
-1.16
-0.03
-0.96
0.05
0.1
0.13
0.02

>  <PUBCHEM_SHAPE_SELFOVERLAP>  (1) 
542.31

>  <PUBCHEM_SHAPE_VOLUME>  (1) 
147.9

>  <PUBCHEM_COORDINATE_TYPE>  (1) 
2
5
10

$$$$
