48782
     RDKit          3D

 14 14  0  0  0  0  0  0  0  0999 V2000
    1.2282    1.6459    0.0138 O   0  0  0  0  0  0  0  0  0  0  0  0
   -0.9799   -0.1603    2.3256 O   0  0  0  0  0  0  0  0  0  0  0  0
   -0.9258   -0.2508   -2.3690 O   0  0  0  0  0  0  0  0  0  0  0  0
    2.5650   -1.9841    0.0533 O   0  0  0  0  0  0  0  0  0  0  0  0
    0.8342   -0.9819    1.1870 N   0  0  0  0  0  0  0  0  0  0  0  0
    0.8616   -1.0265   -1.1581 N   0  0  0  0  0  0  0  0  0  0  0  0
   -0.8018    0.3816   -0.0313 C   0  0  0  0  0  0  0  0  0  0  0  0
   -2.3321    0.5070   -0.0514 C   0  0  0  0  0  0  0  0  0  0  0  0
   -0.1759    1.7877   -0.0510 C   0  0  0  0  0  0  0  0  0  0  0  0
   -0.3620   -0.2848    1.2685 C   0  0  0  0  0  0  0  0  0  0  0  0
   -0.3323   -0.3340   -1.2940 C   0  0  0  0  0  0  0  0  0  0  0  0
   -2.9721   -0.8480    0.0771 C   0  0  0  0  0  0  0  0  0  0  0  0
    1.5033   -1.3591    0.0289 C   0  0  0  0  0  0  0  0  0  0  0  0
    1.8896    2.9073    0.0004 C   0  0  0  0  0  0  0  0  0  0  0  0
  1  9  1  0
  1 14  1  0
  2 10  2  0
  3 11  2  0
  4 13  2  0
  5 10  1  0
  5 13  1  0
  6 11  1  0
  6 13  1  0
  7  8  1  0
  7  9  1  0
  7 10  1  0
  7 11  1  0
  8 12  1  0
M  END
>  <PUBCHEM_COMPOUND_CID>  (1) 
48782

>  <PUBCHEM_CONFORMER_RMSD>  (1) 
0.6

>  <PUBCHEM_CONFORMER_DIVERSEORDER>  (1) 
1
5
6
2
3
4

>  <PUBCHEM_MMFF94_PARTIAL_CHARGES>  (1) 
14
1 -0.56
10 0.57
11 0.57
13 0.69
14 0.28
2 -0.57
22 0.37
23 0.37
3 -0.57
4 -0.57
5 -0.49
6 -0.49
7 0.12
9 0.28

>  <PUBCHEM_EFFECTIVE_ROTOR_COUNT>  (1) 
3.6

>  <PUBCHEM_PHARMACOPHORE_FEATURES>  (1) 
8
1 1 acceptor
1 12 hydrophobe
1 2 acceptor
1 3 acceptor
1 4 acceptor
1 5 donor
1 6 donor
6 5 6 7 10 11 13 rings

>  <PUBCHEM_HEAVY_ATOM_COUNT>  (1) 
14

>  <PUBCHEM_ATOM_DEF_STEREO_COUNT>  (1) 
0

>  <PUBCHEM_ATOM_UDEF_STEREO_COUNT>  (1) 
0

>  <PUBCHEM_BOND_DEF_STEREO_COUNT>  (1) 
0

>  <PUBCHEM_BOND_UDEF_STEREO_COUNT>  (1) 
0

>  <PUBCHEM_ISOTOPIC_ATOM_COUNT>  (1) 
0

>  <PUBCHEM_COMPONENT_COUNT>  (1) 
1

>  <PUBCHEM_CACTVS_TAUTO_COUNT>  (1) 
5

>  <PUBCHEM_CONFORMER_ID>  (1) 
0000BE8E00000001

>  <PUBCHEM_MMFF94_ENERGY>  (1) 
38.4534

>  <PUBCHEM_FEATURE_SELFOVERLAP>  (1) 
40.638

>  <PUBCHEM_SHAPE_FINGERPRINT>  (1) 
10702982 57 17695345163176094357
12423570 1 14568126964767428793
13024252 1 17172667760985340242
137420 1 12182648557484306245
14713566 1 16771562921159064188
14817 1 15964331334158101520
15219459 28 17463139281057683603
16945 1 18338797930710052045
20473742 2 18335128821716450519
23419403 2 17823721808726026946
528862 383 18341324608293407989
54276843 12 17489595527939659407
68250623 7 18411705383017619201
68419 9 17414689245418979709

>  <PUBCHEM_SHAPE_MULTIPOLES>  (1) 
254.67
2.94
2.27
1.65
0.94
0.61
0.05
0.25
-0.07
-2.43
-0.01
0.56
-0.34
0

>  <PUBCHEM_SHAPE_SELFOVERLAP>  (1) 
522.949

>  <PUBCHEM_SHAPE_VOLUME>  (1) 
144.4

>  <PUBCHEM_COORDINATE_TYPE>  (1) 
2
5
10

$$$$
