48785
     RDKit          3D

 15 15  0  0  1  0  0  0  0  0999 V2000
    0.6667    2.3908   -0.8199 O   0  0  0  0  0  0  0  0  0  0  0  0
   -0.5595   -1.1969    1.9505 O   0  0  0  0  0  0  0  0  0  0  0  0
    3.2888   -1.3647   -0.5434 O   0  0  0  0  0  0  0  0  0  0  0  0
    1.9240    0.4731   -0.7552 N   0  0  0  0  0  0  0  0  0  0  0  0
    1.3112   -1.3193    0.6282 N   0  0  0  0  0  0  0  0  0  0  0  0
   -0.3543    0.4186    0.1538 C   0  0  0  0  0  0  0  0  0  0  0  0
   -1.1984   -0.1747   -0.9884 C   0  0  0  0  0  0  0  0  0  0  0  0
   -1.2274    1.3640    0.9917 C   0  0  0  0  0  0  0  0  0  0  0  0
    0.7785    1.2097   -0.4925 C   0  0  0  0  0  0  0  0  0  0  0  0
    0.1092   -0.7487    1.0194 C   0  0  0  0  0  0  0  0  0  0  0  0
   -1.7192    0.9388   -1.8926 C   0  0  0  0  0  0  0  0  0  0  0  0
   -0.4085    2.0512    2.0611 C   0  0  0  0  0  0  0  0  0  0  0  0
   -2.3412   -0.9729   -0.4231 C   0  0  0  0  0  0  0  0  0  0  0  0
    2.2397   -0.7853   -0.2571 C   0  0  0  0  0  0  0  0  0  0  0  0
   -2.5092   -2.2837   -0.6325 C   0  0  0  0  0  0  0  0  0  0  0  0
  1  9  2  0
  2 10  2  0
  3 14  2  0
  4  9  1  0
  4 14  1  0
  5 10  1  0
  5 14  1  0
  6  7  1  0
  6  8  1  0
  6  9  1  0
  6 10  1  0
  7 11  1  0
  7 13  1  0
  8 12  1  0
 13 15  2  0
M  END
>  <PUBCHEM_COMPOUND_CID>  (1) 
48785

>  <PUBCHEM_CONFORMER_RMSD>  (1) 
0.6

>  <PUBCHEM_CONFORMER_DIVERSEORDER>  (1) 
4
15
16
8
5
14
3
11
1
17
7
2
10
6
12
9
13

>  <PUBCHEM_MMFF94_PARTIAL_CHARGES>  (1) 
17
1 -0.57
10 0.57
13 -0.29
14 0.69
15 -0.3
2 -0.57
25 0.15
26 0.37
27 0.37
28 0.15
29 0.15
3 -0.57
4 -0.49
5 -0.49
6 0.12
7 0.14
9 0.57

>  <PUBCHEM_EFFECTIVE_ROTOR_COUNT>  (1) 
3.6

>  <PUBCHEM_PHARMACOPHORE_FEATURES>  (1) 
9
1 1 acceptor
1 11 hydrophobe
1 12 hydrophobe
1 15 hydrophobe
1 2 acceptor
1 3 acceptor
1 4 donor
1 5 donor
6 4 5 6 9 10 14 rings

>  <PUBCHEM_HEAVY_ATOM_COUNT>  (1) 
15

>  <PUBCHEM_ATOM_DEF_STEREO_COUNT>  (1) 
0

>  <PUBCHEM_ATOM_UDEF_STEREO_COUNT>  (1) 
1

>  <PUBCHEM_BOND_DEF_STEREO_COUNT>  (1) 
0

>  <PUBCHEM_BOND_UDEF_STEREO_COUNT>  (1) 
0

>  <PUBCHEM_ISOTOPIC_ATOM_COUNT>  (1) 
0

>  <PUBCHEM_COMPONENT_COUNT>  (1) 
1

>  <PUBCHEM_CACTVS_TAUTO_COUNT>  (1) 
5

>  <PUBCHEM_CONFORMER_ID>  (1) 
0000BE9100000004

>  <PUBCHEM_MMFF94_ENERGY>  (1) 
44.6303

>  <PUBCHEM_FEATURE_SELFOVERLAP>  (1) 
45.712

>  <PUBCHEM_SHAPE_FINGERPRINT>  (1) 
10702982 57 17839751361114145225
12138202 97 15839009643116922676
12326174 3 16913117402662276457
12423570 1 15805545400997865481
13024252 1 16299819450210602956
13299463 15 18040710372580382487
14128692 85 18337386136152307095
144361 1 16457976896500963651
14713566 1 18268988683268741449
14817 1 16824669109531730723
15001771 113 18413111675263322471
16945 1 18192413200136492597
22344851 12 11200285113259607005
22344851 341 18189874552505435745
22802520 49 17752206342751079051
23211744 25 17531231860156600671
23419403 2 17692481914743906560
241688 4 18334853875153521392
430814 3 17263854585166355632
53812653 217 17829048719329712756
81228 2 17559095584964357449

>  <PUBCHEM_SHAPE_MULTIPOLES>  (1) 
281.12
3.21
2.34
1.73
0.61
0.56
0.34
-2.45
-1.1
-0.16
0.46
-0.39
0.67
-0.07

>  <PUBCHEM_SHAPE_SELFOVERLAP>  (1) 
581.052

>  <PUBCHEM_SHAPE_VOLUME>  (1) 
158.6

>  <PUBCHEM_COORDINATE_TYPE>  (1) 
2
5
10

$$$$
