48805
     RDKit          3D

 17 17  0  0  0  0  0  0  0  0999 V2000
   -0.3469    0.9525    2.1091 O   0  0  0  0  0  0  0  0  0  0  0  0
    0.8202   -2.4094   -0.9546 O   0  0  0  0  0  0  0  0  0  0  0  0
   -1.9890    2.0006    0.1732 O   0  0  0  0  0  0  0  0  0  0  0  0
   -3.1680    0.1740   -0.1849 O   0  0  0  0  0  0  0  0  0  0  0  0
    3.5503    1.2201   -0.2984 O   0  0  0  0  0  0  0  0  0  0  0  0
   -2.1296    0.8459   -0.2523 N   0  0  0  0  0  0  0  0  0  0  0  0
    1.5511    1.1327    0.8334 N   0  0  0  0  0  0  0  0  0  0  0  0
    2.1339   -0.5463   -0.6976 N   0  0  0  0  0  0  0  0  0  0  0  0
   -0.1579   -0.5008    0.1771 C   0  0  0  0  0  0  0  0  0  0  0  0
   -0.9622    0.2198   -0.9197 C   0  0  0  0  0  0  0  0  0  0  0  0
   -1.0749   -1.4891    0.9123 C   0  0  0  0  0  0  0  0  0  0  0  0
    0.3250    0.5684    1.1521 C   0  0  0  0  0  0  0  0  0  0  0  0
    0.9620   -1.2665   -0.5204 C   0  0  0  0  0  0  0  0  0  0  0  0
   -1.4930   -0.7651   -1.9513 C   0  0  0  0  0  0  0  0  0  0  0  0
   -0.1554    1.3408   -1.5565 C   0  0  0  0  0  0  0  0  0  0  0  0
   -0.3444   -2.1289    2.0608 C   0  0  0  0  0  0  0  0  0  0  0  0
    2.4789    0.6511   -0.0824 C   0  0  0  0  0  0  0  0  0  0  0  0
  1 12  2  0
  2 13  2  0
  3  6  1  0
  4  6  2  0
  5 17  2  0
  6 10  1  0
  7 12  1  0
  7 17  1  0
  8 13  1  0
  8 17  1  0
  9 10  1  0
  9 11  1  0
  9 12  1  0
  9 13  1  0
 10 14  1  0
 10 15  1  0
 11 16  1  0
M  CHG  2   3  -1   6   1
M  END
>  <PUBCHEM_COMPOUND_CID>  (1) 
48805

>  <PUBCHEM_CONFORMER_RMSD>  (1) 
0.6

>  <PUBCHEM_CONFORMER_DIVERSEORDER>  (1) 
1
6
2
3
4
5

>  <PUBCHEM_MMFF94_PARTIAL_CHARGES>  (1) 
15
1 -0.57
10 0.24
12 0.57
13 0.57
17 0.69
2 -0.57
29 0.37
3 -0.52
30 0.37
4 -0.52
5 -0.57
6 0.8
7 -0.49
8 -0.49
9 0.12

>  <PUBCHEM_EFFECTIVE_ROTOR_COUNT>  (1) 
3.6

>  <PUBCHEM_PHARMACOPHORE_FEATURES>  (1) 
11
1 1 acceptor
1 16 hydrophobe
1 2 acceptor
1 3 acceptor
1 3 anion
1 4 acceptor
1 5 acceptor
1 7 donor
1 8 donor
3 10 14 15 hydrophobe
6 7 8 9 12 13 17 rings

>  <PUBCHEM_HEAVY_ATOM_COUNT>  (1) 
17

>  <PUBCHEM_ATOM_DEF_STEREO_COUNT>  (1) 
0

>  <PUBCHEM_ATOM_UDEF_STEREO_COUNT>  (1) 
0

>  <PUBCHEM_BOND_DEF_STEREO_COUNT>  (1) 
0

>  <PUBCHEM_BOND_UDEF_STEREO_COUNT>  (1) 
0

>  <PUBCHEM_ISOTOPIC_ATOM_COUNT>  (1) 
0

>  <PUBCHEM_COMPONENT_COUNT>  (1) 
1

>  <PUBCHEM_CACTVS_TAUTO_COUNT>  (1) 
5

>  <PUBCHEM_CONFORMER_ID>  (1) 
0000BEA500000001

>  <PUBCHEM_MMFF94_ENERGY>  (1) 
68.2831

>  <PUBCHEM_FEATURE_SELFOVERLAP>  (1) 
55.947

>  <PUBCHEM_SHAPE_FINGERPRINT>  (1) 
10863032 1 18335424525909263031
10948715 1 18334576828066598861
12138202 97 18040997392317719478
12423570 1 14860896038929855991
12491281 212 17988935426727528457
13024252 1 13696135358324207836
137420 1 16013865251996256739
144361 1 18200878353096298344
14817 1 14472139629563818239
15557651 10 18264465399685050980
15775835 57 17917995005022405260
16945 1 18272360962782752909
22344851 12 13103067853030620925
22344851 341 18120650228033465403
23402539 116 18115293587697681662
23419403 2 17762385423648093083
25 1 18340773624235242528
2748010 2 16618111921817532006
353137 74 17489309633562959472
5084963 1 17829844915919116350
528886 8 18410566323051290004
5845 1 8501268441080512358
68250623 7 17700147507986006641

>  <PUBCHEM_SHAPE_MULTIPOLES>  (1) 
305.56
3.27
2.1
1.79
1.39
1.03
-0.03
-1.53
0.17
-0.4
-0.27
-0.28
0.28
0.28

>  <PUBCHEM_SHAPE_SELFOVERLAP>  (1) 
646.448

>  <PUBCHEM_SHAPE_VOLUME>  (1) 
169.2

>  <PUBCHEM_COORDINATE_TYPE>  (1) 
2
5
10

$$$$
