48804
     RDKit          3D

 16 16  0  0  1  0  0  0  0  0999 V2000
   -0.0081   -2.0990    0.8952 O   0  0  0  0  0  0  0  0  0  0  0  0
   -0.6210    2.4503   -0.4573 O   0  0  0  0  0  0  0  0  0  0  0  0
    3.4220    0.4144   -0.9956 O   0  0  0  0  0  0  0  0  0  0  0  0
    1.7265   -0.8707   -0.0360 N   0  0  0  0  0  0  0  0  0  0  0  0
    1.3796    1.3714   -0.6938 N   0  0  0  0  0  0  0  0  0  0  0  0
   -0.4855    0.1893    0.3642 C   0  0  0  0  0  0  0  0  0  0  0  0
   -0.9060    0.5534    1.7952 C   0  0  0  0  0  0  0  0  0  0  0  0
   -1.6702   -0.2215   -0.4648 C   0  0  0  0  0  0  0  0  0  0  0  0
    0.4154   -1.0333    0.4346 C   0  0  0  0  0  0  0  0  0  0  0  0
    0.0603    1.4363   -0.2939 C   0  0  0  0  0  0  0  0  0  0  0  0
    0.2636    1.1009    2.5848 C   0  0  0  0  0  0  0  0  0  0  0  0
   -1.3643   -0.5283   -1.9044 C   0  0  0  0  0  0  0  0  0  0  0  0
    2.2594    0.3011   -0.5971 C   0  0  0  0  0  0  0  0  0  0  0  0
   -2.9244   -0.3169    0.0167 C   0  0  0  0  0  0  0  0  0  0  0  0
    2.5973   -2.0381    0.0663 C   0  0  0  0  0  0  0  0  0  0  0  0
   -4.1444   -0.7092   -0.7142 C   0  0  0  0  0  0  0  0  0  0  0  0
  1  9  2  0
  2 10  2  0
  3 13  2  0
  4  9  1  0
  4 13  1  0
  4 15  1  0
  5 10  1  0
  5 13  1  0
  6  7  1  0
  6  8  1  0
  6  9  1  0
  6 10  1  0
  7 11  1  0
  8 12  1  0
  8 14  2  0
 14 16  1  0
M  END
>  <PUBCHEM_COMPOUND_CID>  (1) 
48804

>  <PUBCHEM_CONFORMER_RMSD>  (1) 
0.6

>  <PUBCHEM_CONFORMER_DIVERSEORDER>  (1) 
1
15
10
5
13
9
12
4
11
7
16
2
6
8
14
3

>  <PUBCHEM_MMFF94_PARTIAL_CHARGES>  (1) 
16
1 -0.57
10 0.57
12 0.14
13 0.69
14 -0.29
15 0.3
16 0.14
2 -0.57
22 0.37
26 0.15
3 -0.57
4 -0.42
5 -0.49
6 0.26
8 -0.28
9 0.57

>  <PUBCHEM_EFFECTIVE_ROTOR_COUNT>  (1) 
2.6

>  <PUBCHEM_PHARMACOPHORE_FEATURES>  (1) 
8
1 1 acceptor
1 11 hydrophobe
1 12 hydrophobe
1 16 hydrophobe
1 2 acceptor
1 3 acceptor
1 5 donor
6 4 5 6 9 10 13 rings

>  <PUBCHEM_HEAVY_ATOM_COUNT>  (1) 
16

>  <PUBCHEM_ATOM_DEF_STEREO_COUNT>  (1) 
0

>  <PUBCHEM_ATOM_UDEF_STEREO_COUNT>  (1) 
1

>  <PUBCHEM_BOND_DEF_STEREO_COUNT>  (1) 
0

>  <PUBCHEM_BOND_UDEF_STEREO_COUNT>  (1) 
1

>  <PUBCHEM_ISOTOPIC_ATOM_COUNT>  (1) 
0

>  <PUBCHEM_COMPONENT_COUNT>  (1) 
1

>  <PUBCHEM_CACTVS_TAUTO_COUNT>  (1) 
3

>  <PUBCHEM_CONFORMER_ID>  (1) 
0000BEA400000001

>  <PUBCHEM_MMFF94_ENERGY>  (1) 
35.4351

>  <PUBCHEM_FEATURE_SELFOVERLAP>  (1) 
40.597

>  <PUBCHEM_SHAPE_FINGERPRINT>  (1) 
11578080 2 17985801809904032809
12138202 97 16588598619987666067
12423570 1 17836657322534919193
13024252 1 14635439384574055912
14344429 50 17131547375047800737
14617773 55 18129112121186959688
14817 1 10228327429968940808
16945 1 18340210785792390539
19010151 120 18338517443417629026
20233049 118 17632302255180443489
20820808 20 18260824946908322877
228727 97 18131083640125075616
23419403 2 17698966718360581384
23559900 14 18192727842001131108
2748010 2 17970925357871959612
3060560 45 18042668676305127207
5084963 1 18197783202379434130
528886 8 18261950842546571937
59915604 170 17748831808194276745
68250623 7 18045786680527376181
7364860 26 16198447983018128921
77492 1 18130240280251874667

>  <PUBCHEM_SHAPE_MULTIPOLES>  (1) 
301.7
4.39
1.94
1.7
1.85
0.41
-0.37
-2.17
1.17
-0.39
-0.47
-0.24
0.52
-0.55

>  <PUBCHEM_SHAPE_SELFOVERLAP>  (1) 
623.305

>  <PUBCHEM_SHAPE_VOLUME>  (1) 
173.6

>  <PUBCHEM_COORDINATE_TYPE>  (1) 
2
5
10

$$$$
