48820
     RDKit          3D

 15 15  0  0  0  0  0  0  0  0999 V2000
    3.7389    0.1376   -0.1749 N   0  0  0  0  0  0  0  0  0  0  0  0
    1.7267    0.0600    0.7190 N   0  0  0  0  0  0  0  0  0  0  0  0
    2.3800    0.1039   -0.3460 N   0  0  0  0  0  0  0  0  0  0  0  0
   -2.8617   -3.5017   -0.3230 N   0  0  0  0  0  0  0  0  0  0  0  0
   -3.0588    3.3978   -0.1616 N   0  0  0  0  0  0  0  0  0  0  0  0
    0.3569    0.0269    0.4377 C   0  0  0  0  0  0  0  0  0  0  0  0
   -0.3606    1.2179    0.3258 C   0  0  0  0  0  0  0  0  0  0  0  0
   -0.2916   -1.1965    0.2698 C   0  0  0  0  0  0  0  0  0  0  0  0
   -1.7268    1.1853    0.0460 C   0  0  0  0  0  0  0  0  0  0  0  0
   -1.6578   -1.2290   -0.0101 C   0  0  0  0  0  0  0  0  0  0  0  0
   -2.3754   -0.0382   -0.1220 C   0  0  0  0  0  0  0  0  0  0  0  0
    4.3977   -0.4848    0.9605 C   0  0  0  0  0  0  0  0  0  0  0  0
    4.5158    0.3977   -1.3699 C   0  0  0  0  0  0  0  0  0  0  0  0
   -2.3218   -2.4825   -0.1826 C   0  0  0  0  0  0  0  0  0  0  0  0
   -2.4615    2.4057   -0.0686 C   0  0  0  0  0  0  0  0  0  0  0  0
  1  3  1  0
  1 12  1  0
  1 13  1  0
  2  3  2  0
  2  6  1  0
  4 14  3  0
  5 15  3  0
  6  7  2  0
  6  8  1  0
  7  9  1  0
  8 10  2  0
  9 11  2  0
  9 15  1  0
 10 11  1  0
 10 14  1  0
M  END
>  <PUBCHEM_COMPOUND_CID>  (1) 
48820

>  <PUBCHEM_CONFORMER_RMSD>  (1) 
0.6

>  <PUBCHEM_CONFORMER_DIVERSEORDER>  (1) 
1
2

>  <PUBCHEM_MMFF94_PARTIAL_CHARGES>  (1) 
18
1 -0.54
10 0.07
11 -0.15
12 0.3
13 0.3
14 0.48
15 0.48
16 0.15
17 0.15
18 0.15
2 -0.18
3 -0.06
4 -0.56
5 -0.56
6 0.18
7 -0.15
8 -0.15
9 0.07

>  <PUBCHEM_EFFECTIVE_ROTOR_COUNT>  (1) 
2

>  <PUBCHEM_PHARMACOPHORE_FEATURES>  (1) 
3
1 4 acceptor
1 5 acceptor
6 6 7 8 9 10 11 rings

>  <PUBCHEM_HEAVY_ATOM_COUNT>  (1) 
15

>  <PUBCHEM_ATOM_DEF_STEREO_COUNT>  (1) 
0

>  <PUBCHEM_ATOM_UDEF_STEREO_COUNT>  (1) 
0

>  <PUBCHEM_BOND_DEF_STEREO_COUNT>  (1) 
0

>  <PUBCHEM_BOND_UDEF_STEREO_COUNT>  (1) 
0

>  <PUBCHEM_ISOTOPIC_ATOM_COUNT>  (1) 
0

>  <PUBCHEM_COMPONENT_COUNT>  (1) 
1

>  <PUBCHEM_CACTVS_TAUTO_COUNT>  (1) 
1

>  <PUBCHEM_CONFORMER_ID>  (1) 
0000BEB400000001

>  <PUBCHEM_MMFF94_ENERGY>  (1) 
33.0971

>  <PUBCHEM_FEATURE_SELFOVERLAP>  (1) 
15.223

>  <PUBCHEM_SHAPE_FINGERPRINT>  (1) 
10062212 137 18114170900943529866
12138202 97 18270684164452970141
12173636 292 18194958548233412685
12500047 106 18340199679402738456
12532896 13 18197496221328275709
12553582 1 18193837273911694531
14508225 48 18268135642982536245
15042514 8 18409732889486092811
15669948 3 18408039606828825346
15842332 3 17967524658649119058
16945 1 18339067255487883707
1741750 31 18268427932228085456
17539 30 18341882044004804119
18785283 64 17543923308417648889
20524608 308 18413108338084230855
20645476 183 18263363594681804497
20645477 56 18340489971731335392
20645477 70 17113239600419396999
20711985 344 18337378435618817259
20871998 22 17908134731148002867
21339142 126 18410577318468449539
21426921 1 18410857689522137092
21499 59 18048589323077438373
21524375 3 18043809784332572441
22620623 9 18130788975224710655
22943178 12 17989768908555477410
23402539 116 18341881996870810245
23557571 272 18130517370251917420
23559900 14 18129661895066959442
23598291 2 18040151821311808078
2748010 2 17980742051108828555
3057174 1 17979908316299543229
3071541 12 17188130094523245145
3071541 250 17832148594996249903
3091708 16 9346082495687094761
394222 165 17682400247810671777
458136 41 17837219169162287081
474229 33 18337111151768102793
559249 180 18191584156212696090
573450 72 18261943086426544562
6049 1 17917712456783905680
633830 44 17168439168752054306
68521 5 18338799021853343367
7615 1 17894901945762530016
77492 1 17821442457134805738
81228 2 18339346574517722873
88987 49 18339066125879972968

>  <PUBCHEM_SHAPE_MULTIPOLES>  (1) 
283.79
7.36
3.22
0.87
10.87
0.32
0.09
-0.39
1.17
-6.15
0.4
0.94
0
-0.51

>  <PUBCHEM_SHAPE_SELFOVERLAP>  (1) 
585.367

>  <PUBCHEM_SHAPE_VOLUME>  (1) 
161.1

>  <PUBCHEM_COORDINATE_TYPE>  (1) 
2
5
10

$$$$
