48821
     RDKit          3D

 19 20  0  0  0  0  0  0  0  0999 V2000
    2.4150   -1.3445   -1.6999 O   0  0  0  0  0  0  0  0  0  0  0  0
   -0.2010    0.2477    1.8598 O   0  0  0  0  0  0  0  0  0  0  0  0
    3.3933    2.6539    0.3280 O   0  0  0  0  0  0  0  0  0  0  0  0
    2.8421    0.6997   -0.7503 N   0  0  0  0  0  0  0  0  0  0  0  0
    1.5357    1.4947    1.0283 N   0  0  0  0  0  0  0  0  0  0  0  0
    0.6795   -0.3731   -0.3126 C   0  0  0  0  0  0  0  0  0  0  0  0
    0.1984   -1.8031   -0.0265 C   0  0  0  0  0  0  0  0  0  0  0  0
   -0.2787    0.2948   -1.3151 C   0  0  0  0  0  0  0  0  0  0  0  0
    2.0542   -0.4199   -0.9719 C   0  0  0  0  0  0  0  0  0  0  0  0
    0.6265    0.4490    0.9713 C   0  0  0  0  0  0  0  0  0  0  0  0
    1.1412   -2.5124    0.9348 C   0  0  0  0  0  0  0  0  0  0  0  0
   -1.6674    0.3891   -0.7573 C   0  0  0  0  0  0  0  0  0  0  0  0
    0.6781   -3.9360    1.1989 C   0  0  0  0  0  0  0  0  0  0  0  0
    2.6335    1.6925    0.1995 C   0  0  0  0  0  0  0  0  0  0  0  0
   -2.5679   -0.6494   -0.9704 C   0  0  0  0  0  0  0  0  0  0  0  0
   -2.0438    1.5140   -0.0310 C   0  0  0  0  0  0  0  0  0  0  0  0
   -3.8596   -0.5618   -0.4514 C   0  0  0  0  0  0  0  0  0  0  0  0
   -3.3356    1.6014    0.4880 C   0  0  0  0  0  0  0  0  0  0  0  0
   -4.2435    0.5634    0.2778 C   0  0  0  0  0  0  0  0  0  0  0  0
  1  9  2  0
  2 10  2  0
  3 14  2  0
  4  9  1  0
  4 14  1  0
  5 10  1  0
  5 14  1  0
  6  7  1  0
  6  8  1  0
  6  9  1  0
  6 10  1  0
  7 11  1  0
  8 12  1  0
 11 13  1  0
 12 15  2  0
 12 16  1  0
 15 17  1  0
 16 18  2  0
 17 19  2  0
 18 19  1  0
M  END
>  <PUBCHEM_COMPOUND_CID>  (1) 
48821

>  <PUBCHEM_CONFORMER_RMSD>  (1) 
0.6

>  <PUBCHEM_CONFORMER_DIVERSEORDER>  (1) 
1
3
11
4
12
6
9
8
7
2
10
5

>  <PUBCHEM_MMFF94_PARTIAL_CHARGES>  (1) 
23
1 -0.57
10 0.57
12 -0.14
14 0.69
15 -0.15
16 -0.15
17 -0.15
18 -0.15
19 -0.15
2 -0.57
26 0.37
27 0.37
3 -0.57
31 0.15
32 0.15
33 0.15
34 0.15
35 0.15
4 -0.49
5 -0.49
6 0.12
8 0.14
9 0.57

>  <PUBCHEM_EFFECTIVE_ROTOR_COUNT>  (1) 
4.6

>  <PUBCHEM_PHARMACOPHORE_FEATURES>  (1) 
8
1 1 acceptor
1 13 hydrophobe
1 2 acceptor
1 3 acceptor
1 4 donor
1 5 donor
6 12 15 16 17 18 19 rings
6 4 5 6 9 10 14 rings

>  <PUBCHEM_HEAVY_ATOM_COUNT>  (1) 
19

>  <PUBCHEM_ATOM_DEF_STEREO_COUNT>  (1) 
0

>  <PUBCHEM_ATOM_UDEF_STEREO_COUNT>  (1) 
0

>  <PUBCHEM_BOND_DEF_STEREO_COUNT>  (1) 
0

>  <PUBCHEM_BOND_UDEF_STEREO_COUNT>  (1) 
0

>  <PUBCHEM_ISOTOPIC_ATOM_COUNT>  (1) 
0

>  <PUBCHEM_COMPONENT_COUNT>  (1) 
1

>  <PUBCHEM_CACTVS_TAUTO_COUNT>  (1) 
5

>  <PUBCHEM_CONFORMER_ID>  (1) 
0000BEB500000001

>  <PUBCHEM_MMFF94_ENERGY>  (1) 
55.3167

>  <PUBCHEM_FEATURE_SELFOVERLAP>  (1) 
40.636

>  <PUBCHEM_SHAPE_FINGERPRINT>  (1) 
10948715 1 18341611589545084868
12423570 1 16051577131071925354
12532896 13 18264767834292167646
12596602 18 17844273846752207251
12788726 201 17032760825179690762
13004483 165 16892847433279118403
13132413 78 17980462482865703242
13533116 47 18116999884828035755
14178342 30 18113341929416368299
14787075 74 17908979156267870119
15375462 189 18121505652623073971
16945 1 18192705653118138119
18186145 218 18411421704369225692
18981168 100 18191285105807817333
19422 9 17775291543069758317
19765921 60 18272083941639733528
201361 129 18339644447373659785
21501502 16 17989201555986414333
21524375 3 18270950371100829948
22112679 90 17478623308401651114
22344851 341 18342172254449122338
2255824 54 18410012091839326974
22854114 111 18409729521830513557
23419403 2 17694831562492304318
23557571 272 17689161527388879180
23559900 14 17630887110447655967
25 1 18202002174482062980
298252 57 17274538849138890292
3286 77 18187927218607420982
3323516 105 18202009849345709653
458136 41 18260560999582526835
474 4 18262242226055727917
633830 44 18342458166211692981
6442390 28 18263938794066915003
7097593 13 17976818680020064283
7364860 26 18264201413836489515
81228 2 17610622299119707314
9981440 41 17413289619221145568

>  <PUBCHEM_SHAPE_MULTIPOLES>  (1) 
363.44
5.78
3.02
1.38
4.77
2.58
-0.01
-2.56
-0.44
-2.7
1.37
-0.43
0.27
-0.21

>  <PUBCHEM_SHAPE_SELFOVERLAP>  (1) 
774.507

>  <PUBCHEM_SHAPE_VOLUME>  (1) 
198.6

>  <PUBCHEM_COORDINATE_TYPE>  (1) 
2
5
10

$$$$
