48822
     RDKit          3D

 19 19  0  0  1  0  0  0  0  0999 V2000
    2.2525    0.8536   -0.2454 O   0  0  0  0  0  0  0  0  0  0  0  0
   -0.5523    0.3355    2.1555 O   0  0  0  0  0  0  0  0  0  0  0  0
   -0.2458   -0.8337   -2.3820 O   0  0  0  0  0  0  0  0  0  0  0  0
    2.3980   -2.8882    0.7559 O   0  0  0  0  0  0  0  0  0  0  0  0
    0.9901   -1.2047    1.4406 N   0  0  0  0  0  0  0  0  0  0  0  0
    1.1438   -1.7883   -0.8261 N   0  0  0  0  0  0  0  0  0  0  0  0
   -0.0760    0.2525   -0.2207 C   0  0  0  0  0  0  0  0  0  0  0  0
   -1.4911    0.7997   -0.4573 C   0  0  0  0  0  0  0  0  0  0  0  0
    0.9487    1.3797   -0.4417 C   0  0  0  0  0  0  0  0  0  0  0  0
   -2.5527   -0.2753   -0.2123 C   0  0  0  0  0  0  0  0  0  0  0  0
   -3.9955    0.2407   -0.3665 C   0  0  0  0  0  0  0  0  0  0  0  0
    0.0607   -0.1969    1.2306 C   0  0  0  0  0  0  0  0  0  0  0  0
    0.2282   -0.8350   -1.2461 C   0  0  0  0  0  0  0  0  0  0  0  0
    0.7134    2.5347    0.5112 C   0  0  0  0  0  0  0  0  0  0  0  0
   -4.2317    1.4137    0.5882 C   0  0  0  0  0  0  0  0  0  0  0  0
   -5.0367   -0.8498   -0.1107 C   0  0  0  0  0  0  0  0  0  0  0  0
    1.5809   -2.0100    0.4743 C   0  0  0  0  0  0  0  0  0  0  0  0
    3.2518    1.8469   -0.4352 C   0  0  0  0  0  0  0  0  0  0  0  0
    4.6138    1.2250   -0.2125 C   0  0  0  0  0  0  0  0  0  0  0  0
  1  9  1  0
  1 18  1  0
  2 12  2  0
  3 13  2  0
  4 17  2  0
  5 12  1  0
  5 17  1  0
  6 13  1  0
  6 17  1  0
  7  8  1  0
  7  9  1  0
  7 12  1  0
  7 13  1  0
  8 10  1  0
  9 14  1  0
 10 11  1  0
 11 15  1  0
 11 16  1  0
 18 19  1  0
M  END
>  <PUBCHEM_COMPOUND_CID>  (1) 
48822

>  <PUBCHEM_CONFORMER_RMSD>  (1) 
0.8

>  <PUBCHEM_CONFORMER_DIVERSEORDER>  (1) 
2
16
11
6
12
15
13
9
4
5
8
14
7
1
10
3

>  <PUBCHEM_MMFF94_PARTIAL_CHARGES>  (1) 
14
1 -0.56
12 0.57
13 0.57
17 0.69
18 0.28
2 -0.57
29 0.37
3 -0.57
30 0.37
4 -0.57
5 -0.49
6 -0.49
7 0.12
9 0.28

>  <PUBCHEM_EFFECTIVE_ROTOR_COUNT>  (1) 
6.6

>  <PUBCHEM_PHARMACOPHORE_FEATURES>  (1) 
8
1 1 acceptor
1 2 acceptor
1 3 acceptor
1 4 acceptor
1 5 donor
1 6 donor
3 11 15 16 hydrophobe
6 5 6 7 12 13 17 rings

>  <PUBCHEM_HEAVY_ATOM_COUNT>  (1) 
19

>  <PUBCHEM_ATOM_DEF_STEREO_COUNT>  (1) 
0

>  <PUBCHEM_ATOM_UDEF_STEREO_COUNT>  (1) 
1

>  <PUBCHEM_BOND_DEF_STEREO_COUNT>  (1) 
0

>  <PUBCHEM_BOND_UDEF_STEREO_COUNT>  (1) 
0

>  <PUBCHEM_ISOTOPIC_ATOM_COUNT>  (1) 
0

>  <PUBCHEM_COMPONENT_COUNT>  (1) 
1

>  <PUBCHEM_CACTVS_TAUTO_COUNT>  (1) 
5

>  <PUBCHEM_CONFORMER_ID>  (1) 
0000BEB600000002

>  <PUBCHEM_MMFF94_ENERGY>  (1) 
51.7797

>  <PUBCHEM_FEATURE_SELFOVERLAP>  (1) 
40.638

>  <PUBCHEM_SHAPE_FINGERPRINT>  (1) 
10863032 1 18408605889466040635
10922049 32 18263364848759598460
10948715 1 18338238279254649356
12592029 89 18409448102857033568
12644460 14 18411705365768905547
13464514 151 18336554849775202761
14251751 93 18057884838901194271
14713566 1 17489031586181004580
15238133 3 17059215818216112041
15852999 172 17386021592795733218
16945 1 18338221760726084845
187816 3 16271658883107413364
19784866 9 18410292518954949536
20233049 118 17275384313509370321
20473742 2 18114736049619655790
20645477 70 18188196634028315951
21501502 16 18341331089953205285
21524375 3 18198064870498025309
22112679 90 17773003489305233134
23402539 116 15864341510752682405
23419403 2 17315334965473031526
25 1 18334856160086763284
298252 57 17916592075646157812
347723 3 17703516570627775804
394222 165 18343584066202561346
54040823 5 18413392042528711387
6138700 20 18409453566567202044
7364860 26 18408319965087730163
7495541 125 12607119673032076181
81228 2 17114642039693475536
81539 233 18260265273967579924
9999458 23 18265050412922694461

>  <PUBCHEM_SHAPE_MULTIPOLES>  (1) 
357.57
7.12
2.43
1.43
5.57
0.66
0
-2.06
-0.32
-2.1
0.38
-0.03
0.41
-0.7

>  <PUBCHEM_SHAPE_SELFOVERLAP>  (1) 
722.161

>  <PUBCHEM_SHAPE_VOLUME>  (1) 
207

>  <PUBCHEM_COORDINATE_TYPE>  (1) 
2
5
10

$$$$
