48839
     RDKit          3D

 19 21  0  0  1  0  0  0  0  0999 V2000
   -1.5097    1.0989   -0.4933 O   0  0  0  0  0  0  0  0  0  0  0  0
   -1.6792   -1.3447    1.0248 O   0  0  0  0  0  0  0  0  0  0  0  0
    2.0447    0.4300    0.1582 N   0  0  0  0  0  0  0  0  0  0  0  0
    4.6863   -0.5443   -0.4986 N   0  0  0  0  0  0  0  0  0  0  0  0
    0.8439    1.2189   -0.1091 C   0  0  0  0  0  0  0  0  0  0  0  0
    2.2456   -0.5833   -0.8850 C   0  0  0  0  0  0  0  0  0  0  0  0
    3.2249    1.2963    0.2645 C   0  0  0  0  0  0  0  0  0  0  0  0
   -0.3634    0.2956   -0.1803 C   0  0  0  0  0  0  0  0  0  0  0  0
    3.5058   -1.4102   -0.6070 C   0  0  0  0  0  0  0  0  0  0  0  0
    4.4848    0.4695    0.5439 C   0  0  0  0  0  0  0  0  0  0  0  0
    0.6582    2.2819    0.9701 C   0  0  0  0  0  0  0  0  0  0  0  0
   -0.5878   -0.4265    1.1418 C   0  0  0  0  0  0  0  0  0  0  0  0
    5.8863   -1.3340   -0.2296 C   0  0  0  0  0  0  0  0  0  0  0  0
   -2.6832    0.4141   -0.3169 C   0  0  0  0  0  0  0  0  0  0  0  0
   -2.7633   -0.7758    0.4097 C   0  0  0  0  0  0  0  0  0  0  0  0
   -3.8308    0.9607   -0.8917 C   0  0  0  0  0  0  0  0  0  0  0  0
   -3.9828   -1.4434    0.5249 C   0  0  0  0  0  0  0  0  0  0  0  0
   -5.0527    0.2997   -0.7644 C   0  0  0  0  0  0  0  0  0  0  0  0
   -5.1276   -0.9034   -0.0618 C   0  0  0  0  0  0  0  0  0  0  0  0
  1  8  1  0
  1 14  1  0
  2 12  1  0
  2 15  1  0
  3  5  1  0
  3  6  1  0
  3  7  1  0
  4  9  1  0
  4 10  1  0
  4 13  1  0
  5  8  1  0
  5 11  1  0
  6  9  1  0
  7 10  1  0
  8 12  1  0
 14 15  2  0
 14 16  1  0
 15 17  1  0
 16 18  2  0
 17 19  2  0
 18 19  1  0
M  END
>  <PUBCHEM_COMPOUND_CID>  (1) 
48839

>  <PUBCHEM_CONFORMER_RMSD>  (1) 
0.6

>  <PUBCHEM_CONFORMER_DIVERSEORDER>  (1) 
1
23
14
8
21
9
20
6
15
11
2
24
16
4
22
12
7
10
13
17
19
18
5
3

>  <PUBCHEM_MMFF94_PARTIAL_CHARGES>  (1) 
22
1 -0.36
10 0.27
12 0.28
13 0.27
14 0.08
15 0.08
16 -0.15
17 -0.15
18 -0.15
19 -0.15
2 -0.36
3 -0.81
38 0.15
39 0.15
4 -0.81
40 0.15
41 0.15
5 0.27
6 0.27
7 0.27
8 0.28
9 0.27

>  <PUBCHEM_EFFECTIVE_ROTOR_COUNT>  (1) 
4

>  <PUBCHEM_PHARMACOPHORE_FEATURES>  (1) 
7
1 1 acceptor
1 2 acceptor
1 3 cation
1 4 cation
6 1 2 8 12 14 15 rings
6 14 15 16 17 18 19 rings
6 3 4 6 7 9 10 rings

>  <PUBCHEM_HEAVY_ATOM_COUNT>  (1) 
19

>  <PUBCHEM_ATOM_DEF_STEREO_COUNT>  (1) 
0

>  <PUBCHEM_ATOM_UDEF_STEREO_COUNT>  (1) 
2

>  <PUBCHEM_BOND_DEF_STEREO_COUNT>  (1) 
0

>  <PUBCHEM_BOND_UDEF_STEREO_COUNT>  (1) 
0

>  <PUBCHEM_ISOTOPIC_ATOM_COUNT>  (1) 
0

>  <PUBCHEM_COMPONENT_COUNT>  (1) 
1

>  <PUBCHEM_CACTVS_TAUTO_COUNT>  (1) 
1

>  <PUBCHEM_CONFORMER_ID>  (1) 
0000BEC700000001

>  <PUBCHEM_MMFF94_ENERGY>  (1) 
56.0301

>  <PUBCHEM_FEATURE_SELFOVERLAP>  (1) 
35.564

>  <PUBCHEM_SHAPE_FINGERPRINT>  (1) 
10 15 18270386284056891472
11128504 68 16081093692439155934
11315181 36 18408891720119695192
11796584 16 17894911819803127962
12236239 1 16200151005964572789
12516196 113 18131068247147111080
12596602 18 15554158250817695854
13134695 92 17846212306166827273
13288520 33 18408605855369858055
13544592 145 18333731338000122425
13544653 18 18201723937873562420
14115302 16 17821736065045987340
14251731 8 18113336396960420935
14251752 14 17241037704882722310
14252887 29 17489878111492420006
14341114 328 14189570853959287698
14386348 63 18410857663573154198
14573314 32 18333730212760921517
15099037 51 18408604768627282391
15375358 24 18410291428096254466
15788980 27 18272647956649942773
15961568 22 17313948666242505044
17349148 13 16917355860915093213
17804303 29 18259984907467003617
17834072 14 18412826884714205952
17834072 8 18187079542608579135
17844677 252 18411142437053554389
17870717 6 18187089438187037263
1813 80 16916800577716250244
18186145 218 18040989661824960245
18222031 100 17561089103226071348
19141452 34 18342741870819859351
19489759 90 18040715848584485534
200 152 17846779598215399360
20279233 1 18410016549999451910
20374829 77 18334011683411100550
20645477 70 18272653437434615302
20871999 31 17749392546276672060
21065201 7 17968369134754816153
21120745 212 14594035422947422329
21250096 35 18272369763212966330
21267235 1 18272377455826486678
21279426 13 18263640658880031303
221357 26 18411411818003499429
2215653 11 18410285909168722519
23175994 123 18343585152930033441
23402539 116 18040711454969968677
23403322 49 18409732841634569958
23557571 272 18186799145426365916
23559900 14 18335136522862194552
239999 70 18410575094139379750
26918003 58 18131633382816834306
2871803 45 18409451350132143834
3004659 81 18040435469684323778
4214541 1 18409166584814975629
465052 167 18131355202765907326
474 4 15983675948922497160
4990 188 18260827102945027697
5104073 3 18272089383242011312
5283173 99 18335698282840916044
59755656 215 18113330917358020435
69090 78 18412260679307709503
9709674 26 18117561940584493907

>  <PUBCHEM_SHAPE_MULTIPOLES>  (1) 
369.31
12.01
1.72
0.98
3.39
0.37
0.07
-4.48
-1.88
0.6
0.26
-0.27
-0.01
1.2

>  <PUBCHEM_SHAPE_SELFOVERLAP>  (1) 
780.165

>  <PUBCHEM_SHAPE_VOLUME>  (1) 
207.8

>  <PUBCHEM_COORDINATE_TYPE>  (1) 
2
5
10

$$$$
