48845
     RDKit          3D

 26 28  0  0  0  0  0  0  0  0999 V2000
    1.0850   -0.1415   -0.9963 O   0  0  0  0  0  0  0  0  0  0  0  0
    1.4887   -0.4244    1.3565 O   0  0  0  0  0  0  0  0  0  0  0  0
   -0.6732    1.7338    1.8342 O   0  0  0  0  0  0  0  0  0  0  0  0
   -4.4463    0.8536   -0.6646 N   0  0  0  0  0  0  0  0  0  0  0  0
   -0.9201    2.0340   -0.4572 N   0  0  0  0  0  0  0  0  0  0  0  0
    1.7886    0.3642    0.1719 C   0  0  0  0  0  0  0  0  0  0  0  0
    1.2945    1.7929    0.4283 C   0  0  0  0  0  0  0  0  0  0  0  0
    3.2940    0.3802   -0.0843 C   0  0  0  0  0  0  0  0  0  0  0  0
   -2.9930    0.7479   -0.6692 C   0  0  0  0  0  0  0  0  0  0  0  0
    0.4316   -1.2215   -0.4879 C   0  0  0  0  0  0  0  0  0  0  0  0
    0.6624   -1.3831    0.8571 C   0  0  0  0  0  0  0  0  0  0  0  0
   -0.1932    1.8466    0.7095 C   0  0  0  0  0  0  0  0  0  0  0  0
   -2.3623    2.1202   -0.4837 C   0  0  0  0  0  0  0  0  0  0  0  0
   -5.0509   -0.3105   -1.3154 C   0  0  0  0  0  0  0  0  0  0  0  0
   -4.9498    0.9876    0.7038 C   0  0  0  0  0  0  0  0  0  0  0  0
    3.7790    0.5291   -1.3838 C   0  0  0  0  0  0  0  0  0  0  0  0
    4.1842    0.2455    0.9811 C   0  0  0  0  0  0  0  0  0  0  0  0
   -0.3814   -2.0831   -1.1943 C   0  0  0  0  0  0  0  0  0  0  0  0
    0.0935   -2.4159    1.5730 C   0  0  0  0  0  0  0  0  0  0  0  0
    5.1540    0.5432   -1.6175 C   0  0  0  0  0  0  0  0  0  0  0  0
    5.5592    0.2598    0.7472 C   0  0  0  0  0  0  0  0  0  0  0  0
   -4.7267   -1.5899   -0.5631 C   0  0  0  0  0  0  0  0  0  0  0  0
   -6.4585    1.1659    0.7188 C   0  0  0  0  0  0  0  0  0  0  0  0
   -0.9699   -3.1388   -0.4940 C   0  0  0  0  0  0  0  0  0  0  0  0
   -0.7336   -3.3042    0.8821 C   0  0  0  0  0  0  0  0  0  0  0  0
    6.0441    0.4086   -0.5520 C   0  0  0  0  0  0  0  0  0  0  0  0
  1  6  1  0
  1 10  1  0
  2  6  1  0
  2 11  1  0
  3 12  2  0
  4  9  1  0
  4 14  1  0
  4 15  1  0
  5 12  1  0
  5 13  1  0
  6  7  1  0
  6  8  1  0
  7 12  1  0
  8 16  2  0
  8 17  1  0
  9 13  1  0
 10 11  2  0
 10 18  1  0
 11 19  1  0
 14 22  1  0
 15 23  1  0
 16 20  1  0
 17 21  2  0
 18 24  2  0
 19 25  2  0
 20 26  2  0
 21 26  1  0
 24 25  1  0
M  END
>  <PUBCHEM_COMPOUND_CID>  (1) 
48845

>  <PUBCHEM_CONFORMER_RMSD>  (1) 
1

>  <PUBCHEM_CONFORMER_DIVERSEORDER>  (1) 
1
18
91
84
100
105
80
66
101
31
40
50
57
53
69
17
22
72
93
79
56
68
104
4
19
27
71
15
51
88
55
75
103
82
29
99
58
61
85
8
92
89
70
102
74
39
52
49
3
59
60
90
47
65
13
32
33
67
10
44
34
43
46
26
35
77
9
87
76
63
78
38
73
64
62
16
30
14
48
36
81
45
5
106
54
12
20
7
97
96
6
42
23
11
28
37
41
94
21
83
2
24
25
86
98
95

>  <PUBCHEM_MMFF94_PARTIAL_CHARGES>  (1) 
34
1 -0.36
10 0.08
11 0.08
12 0.57
13 0.3
14 0.27
15 0.27
16 -0.15
17 -0.15
18 -0.15
19 -0.15
2 -0.36
20 -0.15
21 -0.15
24 -0.15
25 -0.15
26 -0.15
3 -0.57
33 0.37
38 0.15
39 0.15
4 -0.81
40 0.15
41 0.15
42 0.15
43 0.15
5 -0.73
50 0.15
51 0.15
52 0.15
6 0.7
7 0.06
8 -0.14
9 0.27

>  <PUBCHEM_EFFECTIVE_ROTOR_COUNT>  (1) 
9.6

>  <PUBCHEM_PHARMACOPHORE_FEATURES>  (1) 
8
1 1 acceptor
1 2 acceptor
1 3 acceptor
1 4 cation
1 5 donor
5 1 2 6 10 11 rings
6 10 11 18 19 24 25 rings
6 8 16 17 20 21 26 rings

>  <PUBCHEM_HEAVY_ATOM_COUNT>  (1) 
26

>  <PUBCHEM_ATOM_DEF_STEREO_COUNT>  (1) 
0

>  <PUBCHEM_ATOM_UDEF_STEREO_COUNT>  (1) 
0

>  <PUBCHEM_BOND_DEF_STEREO_COUNT>  (1) 
0

>  <PUBCHEM_BOND_UDEF_STEREO_COUNT>  (1) 
0

>  <PUBCHEM_ISOTOPIC_ATOM_COUNT>  (1) 
0

>  <PUBCHEM_COMPONENT_COUNT>  (1) 
1

>  <PUBCHEM_CACTVS_TAUTO_COUNT>  (1) 
2

>  <PUBCHEM_CONFORMER_ID>  (1) 
0000BECD00000001

>  <PUBCHEM_MMFF94_ENERGY>  (1) 
55.5934

>  <PUBCHEM_FEATURE_SELFOVERLAP>  (1) 
40.75

>  <PUBCHEM_SHAPE_FINGERPRINT>  (1) 
10090160 65 17967811617892793531
10119406 146 18337118865487584262
10674148 151 17632022953114299456
10759866 29 18040708134886694395
1100329 8 18336826510503812973
11488393 25 17913784824729238231
11578080 2 16842742010175692066
12011746 2 18338225059830583311
12293681 25 17986701262260980046
12467345 10 16153715348700518769
12553582 1 18341320112296631385
12788726 201 18410854374139804746
13149001 5 18271236239966514000
13583140 156 16733563705299252288
14617045 38 18410576159412724901
14787075 74 18342170085469805181
15131766 46 14853606698751825550
15209289 33 18343578564592281957
15537594 2 18411980235597708605
15849732 13 17458348529208307660
1601671 61 18412822482399042869
16752209 62 18335698412296330082
173720 79 18187074045308825114
17492 54 18334284380097105023
17980427 23 16805897186128935885
20197701 30 18261385595023128254
20567600 347 18263650571427316395
21344244 181 17987533536501836734
21421861 104 18050009883631539697
21521721 280 18410018757655464049
22224240 67 18411136931469541673
22393880 68 18271226301770504101
22956985 138 17610054573168383002
23402539 116 18273212010452189564
23419403 2 17201912863555891626
23559900 14 18342739663633852500
3178227 256 18334587840843060473
3759504 43 17894915156586333330
4258327 124 17823716329155515708
4340502 62 16660366956662958864
474229 33 18334575728596935133
5486654 2 18410295800278224237
58260988 647 16701196174578790230
59755656 215 18131355167836242325
59755656 520 18333728022618231742
7226269 152 18413387661546154824

>  <PUBCHEM_SHAPE_MULTIPOLES>  (1) 
507.5
12.39
2.95
1.48
2.12
2.27
0.07
-5.09
-2.15
2.3
0.52
-0.4
0.15
-0.71

>  <PUBCHEM_SHAPE_SELFOVERLAP>  (1) 
1077.429

>  <PUBCHEM_SHAPE_VOLUME>  (1) 
283.7

>  <PUBCHEM_COORDINATE_TYPE>  (1) 
2
5
10

$$$$
