4885
     RDKit          3D

 14 15  0  0  1  0  0  0  0  0999 V2000
    2.1298   -1.7953    0.2148 S   0  0  0  0  0  0  0  0  0  0  0  0
   -2.4536    0.8083    0.2322 N   0  0  0  0  0  0  0  0  0  0  0  0
    3.1630    0.5484   -0.1802 N   0  0  0  0  0  0  0  0  0  0  0  0
    4.7147   -1.2350   -0.0862 N   0  0  0  0  0  0  0  0  0  0  0  0
   -1.0615    0.7614   -0.2104 C   0  0  0  0  0  0  0  0  0  0  0  0
   -0.3035    2.0136    0.2865 C   0  0  0  0  0  0  0  0  0  0  0  0
   -0.4017   -0.5424    0.2962 C   0  0  0  0  0  0  0  0  0  0  0  0
    1.1529    2.0374   -0.2156 C   0  0  0  0  0  0  0  0  0  0  0  0
    1.0791   -0.4594    0.1308 C   0  0  0  0  0  0  0  0  0  0  0  0
    1.7964    0.7020   -0.0765 C   0  0  0  0  0  0  0  0  0  0  0  0
   -3.1967   -0.3327   -0.2802 C   0  0  0  0  0  0  0  0  0  0  0  0
   -4.6396   -0.2917    0.2167 C   0  0  0  0  0  0  0  0  0  0  0  0
    3.4539   -0.7277   -0.0402 C   0  0  0  0  0  0  0  0  0  0  0  0
   -5.4334   -1.4868   -0.2880 C   0  0  0  0  0  0  0  0  0  0  0  0
  1  9  1  0
  1 13  1  0
  2  5  1  0
  2 11  1  0
  3 10  1  0
  3 13  2  0
  4 13  1  0
  5  6  1  0
  5  7  1  0
  6  8  1  0
  7  9  1  0
  8 10  1  0
  9 10  2  0
 11 12  1  0
 12 14  1  0
M  END
>  <PUBCHEM_COMPOUND_CID>  (1) 
4885

>  <PUBCHEM_CONFORMER_RMSD>  (1) 
0.6

>  <PUBCHEM_CONFORMER_DIVERSEORDER>  (1) 
2
7
5
3
9
12
10
11
8
14
6
13
4
1

>  <PUBCHEM_MMFF94_PARTIAL_CHARGES>  (1) 
14
1 -0.08
10 0.05
11 0.27
13 0.46
2 -0.9
22 0.36
3 -0.57
30 0.4
31 0.4
4 -0.88
5 0.27
7 0.18
8 0.18
9 -0.14

>  <PUBCHEM_EFFECTIVE_ROTOR_COUNT>  (1) 
3.8

>  <PUBCHEM_PHARMACOPHORE_FEATURES>  (1) 
7
1 14 hydrophobe
1 2 cation
1 2 donor
1 4 donor
3 3 4 13 cation
5 1 3 9 10 13 rings
6 5 6 7 8 9 10 rings

>  <PUBCHEM_HEAVY_ATOM_COUNT>  (1) 
14

>  <PUBCHEM_ATOM_DEF_STEREO_COUNT>  (1) 
0

>  <PUBCHEM_ATOM_UDEF_STEREO_COUNT>  (1) 
1

>  <PUBCHEM_BOND_DEF_STEREO_COUNT>  (1) 
0

>  <PUBCHEM_BOND_UDEF_STEREO_COUNT>  (1) 
0

>  <PUBCHEM_ISOTOPIC_ATOM_COUNT>  (1) 
0

>  <PUBCHEM_COMPONENT_COUNT>  (1) 
1

>  <PUBCHEM_CACTVS_TAUTO_COUNT>  (1) 
2

>  <PUBCHEM_CONFORMER_ID>  (1) 
0000131500000002

>  <PUBCHEM_MMFF94_ENERGY>  (1) 
8.4526

>  <PUBCHEM_FEATURE_SELFOVERLAP>  (1) 
35.588

>  <PUBCHEM_SHAPE_FINGERPRINT>  (1) 
100836 57 9871745818992443379
11471102 20 18335701680101466069
11543360 7 15719687527250355563
11806522 49 18409449184756242793
12032990 46 18411139112679723780
13690532 89 18410012134836349099
13862211 1 18408319965246408098
14115302 16 17749682864554219206
14251717 144 18408885165646251531
14252887 29 17989213624575665966
14576447 43 18408602552329426458
15196674 1 18410575071852289901
15375462 189 18343014506400154543
15477762 27 18409730672638954422
15757776 16 18260545602156386850
16945 1 18335712585545683064
18186145 218 17603578656371117289
200 152 18413387631444356571
20201158 50 18260552212042496691
20645477 70 18262514909492216087
20871998 22 18200602375677869742
21267235 1 18411427193358684502
21501925 9 18411132537074361177
221490 88 18190467258240625875
23402539 116 18339074895812839974
23402655 69 18335417942067361261
2748010 2 18047483502005099592
2871803 45 18187078451686963675
4047638 21 10087643710234980636
465052 167 18271530900745914199
5104073 3 18413106134723888889
602551 16 15482100713041358103
7364860 26 18269835470505200552
76465 3 18188200988671551546
83771 10 18412261727195138741
8809292 202 18114468954325392747
94968 8 18408885143897063010

>  <PUBCHEM_SHAPE_MULTIPOLES>  (1) 
277.02
9.12
1.97
0.65
8.91
0.48
-0.01
-5.6
0.65
-0.62
-0.03
0.07
-0.01
-0.27

>  <PUBCHEM_SHAPE_SELFOVERLAP>  (1) 
554.018

>  <PUBCHEM_SHAPE_VOLUME>  (1) 
166

>  <PUBCHEM_COORDINATE_TYPE>  (1) 
2
5
10

$$$$
