48869
     RDKit          3D

 18 18  0  0  1  0  0  0  0  0999 V2000
   -0.8796   -0.4235   -0.0173 N   0  0  0  0  0  0  0  0  0  0  0  0
    0.9932    1.0417    0.2827 N   0  0  0  0  0  0  0  0  0  0  0  0
   -1.2053    1.9021   -0.0322 N   0  0  0  0  0  0  0  0  0  0  0  0
    4.3471   -1.4841    0.0467 N   0  0  0  0  0  0  0  0  0  0  0  0
   -0.1331    4.0581   -0.7155 N   0  0  0  0  0  0  0  0  0  0  0  0
   -2.3251   -0.4804   -0.2806 C   0  0  0  0  0  0  0  0  0  0  0  0
   -3.0977   -0.4794    1.0588 C   0  0  0  0  0  0  0  0  0  0  0  0
   -2.6202   -1.7180   -1.1394 C   0  0  0  0  0  0  0  0  0  0  0  0
   -4.6204   -0.4924    0.8938 C   0  0  0  0  0  0  0  0  0  0  0  0
   -2.6620   -1.6512    1.9458 C   0  0  0  0  0  0  0  0  0  0  0  0
   -1.8477   -1.7082   -2.4532 C   0  0  0  0  0  0  0  0  0  0  0  0
   -0.3495    0.7474    0.1011 C   0  0  0  0  0  0  0  0  0  0  0  0
    2.1200    0.1928    0.2041 C   0  0  0  0  0  0  0  0  0  0  0  0
    3.3082    0.5556    0.8250 C   0  0  0  0  0  0  0  0  0  0  0  0
    2.0402   -1.0046   -0.4952 C   0  0  0  0  0  0  0  0  0  0  0  0
    4.3843   -0.3108    0.7174 C   0  0  0  0  0  0  0  0  0  0  0  0
    3.1728   -1.8013   -0.5436 C   0  0  0  0  0  0  0  0  0  0  0  0
   -0.6253    3.0562   -0.3983 C   0  0  0  0  0  0  0  0  0  0  0  0
  1  6  1  0
  1 12  2  0
  2 12  1  0
  2 13  1  0
  3 12  1  0
  3 18  1  0
  4 16  2  0
  4 17  1  0
  5 18  3  0
  6  7  1  0
  6  8  1  0
  7  9  1  0
  7 10  1  0
  8 11  1  0
 13 14  2  0
 13 15  1  0
 14 16  1  0
 15 17  2  0
M  END
>  <PUBCHEM_COMPOUND_CID>  (1) 
48869

>  <PUBCHEM_CONFORMER_RMSD>  (1) 
0.8

>  <PUBCHEM_CONFORMER_DIVERSEORDER>  (1) 
3
17
13
23
46
49
2
44
53
50
38
16
47
32
41
9
31
43
14
27
19
52
35
56
36
24
11
25
33
4
22
48
45
7
18
37
10
54
20
28
40
51
29
39
21
34
42
15
8
55
12
30
5
6
1
26

>  <PUBCHEM_MMFF94_PARTIAL_CHARGES>  (1) 
19
1 -0.7
12 0.55
13 0.1
14 -0.15
15 -0.15
16 0.16
17 0.16
18 0.62
2 -0.55
3 -0.51
32 0.4
33 0.4
34 0.15
35 0.15
36 0.15
37 0.15
4 -0.62
5 -0.56
6 0.25

>  <PUBCHEM_EFFECTIVE_ROTOR_COUNT>  (1) 
6

>  <PUBCHEM_PHARMACOPHORE_FEATURES>  (1) 
8
1 11 hydrophobe
1 2 donor
1 3 donor
1 4 acceptor
1 5 acceptor
3 7 9 10 hydrophobe
4 1 2 3 12 cation
6 4 13 14 15 16 17 rings

>  <PUBCHEM_HEAVY_ATOM_COUNT>  (1) 
18

>  <PUBCHEM_ATOM_DEF_STEREO_COUNT>  (1) 
0

>  <PUBCHEM_ATOM_UDEF_STEREO_COUNT>  (1) 
1

>  <PUBCHEM_BOND_DEF_STEREO_COUNT>  (1) 
0

>  <PUBCHEM_BOND_UDEF_STEREO_COUNT>  (1) 
0

>  <PUBCHEM_ISOTOPIC_ATOM_COUNT>  (1) 
0

>  <PUBCHEM_COMPONENT_COUNT>  (1) 
1

>  <PUBCHEM_CACTVS_TAUTO_COUNT>  (1) 
5

>  <PUBCHEM_CONFORMER_ID>  (1) 
0000BEE500000003

>  <PUBCHEM_MMFF94_ENERGY>  (1) 
63.8404

>  <PUBCHEM_FEATURE_SELFOVERLAP>  (1) 
40.629

>  <PUBCHEM_SHAPE_FINGERPRINT>  (1) 
10618630 7 18334300868028213418
1100329 8 14302462548668545835
11132069 177 17989480831903205646
11357001 24 18263082110972910000
11578080 2 17415809566279765537
12251169 10 17704075100753874994
12363563 72 18261396675669668810
12553582 1 18339081591951639246
12633257 1 17275106124061386826
12759256 9 17976814607911104093
14863182 85 15589390202849938059
15422964 175 18334587853268961211
15885798 251 18334866004220215433
1813 80 18338808891350547181
19141452 34 18131912667729664599
19433438 48 17917419947836134326
20871998 184 18270683043456157732
21304303 282 17030171097060068892
21339142 126 18341324509461739318
21524375 3 17399788307199194869
23175994 123 18259987093726520713
23184049 59 18202574973043160539
23402539 116 18336535088836174802
23557571 272 18261392209399624460
23598288 3 18334865978302816189
23598291 2 17986397908451337677
2748010 2 17697887968762761990
3286 77 17824833475617984123
6992083 37 18059861705168487039
81228 2 18335415703936297457

>  <PUBCHEM_SHAPE_MULTIPOLES>  (1) 
345.53
7.73
3.07
1.51
3.39
4.07
-0.34
-4.63
2.61
-0.27
-1.31
-1.55
-0.95
0.16

>  <PUBCHEM_SHAPE_SELFOVERLAP>  (1) 
692.494

>  <PUBCHEM_SHAPE_VOLUME>  (1) 
196.7

>  <PUBCHEM_COORDINATE_TYPE>  (1) 
2
5
10

$$$$
