48865
     RDKit          3D

 17 17  0  0  0  0  0  0  0  0999 V2000
   -3.4254    0.2242   -0.1737 O   0  0  0  0  0  0  0  0  0  0  0  0
    1.5097   -0.7464    0.2250 N   0  0  0  0  0  0  0  0  0  0  0  0
   -0.8752   -0.7985    0.4564 N   0  0  0  0  0  0  0  0  0  0  0  0
    0.3004   -2.7783   -0.0625 N   0  0  0  0  0  0  0  0  0  0  0  0
    1.1255    2.8849   -0.3059 N   0  0  0  0  0  0  0  0  0  0  0  0
    2.4899   -3.7658   -0.7671 N   0  0  0  0  0  0  0  0  0  0  0  0
   -3.2751   -0.8038    0.7968 C   0  0  0  0  0  0  0  0  0  0  0  0
   -2.0601   -1.6458    0.4533 C   0  0  0  0  0  0  0  0  0  0  0  0
   -4.5532    1.0428    0.1044 C   0  0  0  0  0  0  0  0  0  0  0  0
    0.2664   -1.3601    0.2045 C   0  0  0  0  0  0  0  0  0  0  0  0
    1.8391    0.6242    0.1283 C   0  0  0  0  0  0  0  0  0  0  0  0
   -4.6593    2.1142   -0.9598 C   0  0  0  0  0  0  0  0  0  0  0  0
    3.1350    1.0588    0.3582 C   0  0  0  0  0  0  0  0  0  0  0  0
    0.8774    1.5604   -0.1971 C   0  0  0  0  0  0  0  0  0  0  0  0
    3.4293    2.4139    0.2559 C   0  0  0  0  0  0  0  0  0  0  0  0
    2.3984    3.2782   -0.0759 C   0  0  0  0  0  0  0  0  0  0  0  0
    1.4771   -3.3029   -0.4408 C   0  0  0  0  0  0  0  0  0  0  0  0
  1  7  1  0
  1  9  1  0
  2 10  1  0
  2 11  1  0
  3  8  1  0
  3 10  2  0
  4 10  1  0
  4 17  1  0
  5 14  2  0
  5 16  1  0
  6 17  3  0
  7  8  1  0
  9 12  1  0
 11 13  2  0
 11 14  1  0
 13 15  1  0
 15 16  2  0
M  END
>  <PUBCHEM_COMPOUND_CID>  (1) 
48865

>  <PUBCHEM_CONFORMER_RMSD>  (1) 
0.8

>  <PUBCHEM_CONFORMER_DIVERSEORDER>  (1) 
1
14
64
77
54
117
122
68
80
38
46
104
59
20
63
102
50
87
73
90
17
97
100
112
74
113
4
15
82
3
120
115
76
139
116
11
13
30
35
103
126
127
41
56
92
53
81
57
2
58
49
99
23
39
67
108
96
121
34
98
16
109
52
89
125
132
22
128
66
88
31
55
119
72
27
12
10
101
141
124
47
19
28
130
84
94
45
62
33
140
42
129
107
138
51
85
36
9
65
78
26
21
83
131
43
114
71
70
37
110
48
118
123
143
86
61
69
60
144
79
32
93
136
105
106
135
91
142
75
133
40
44
18
134
111
137
24
29
5
95
8
6
25
7

>  <PUBCHEM_MMFF94_PARTIAL_CHARGES>  (1) 
22
1 -0.56
10 0.55
11 0.1
13 -0.15
14 0.16
15 -0.15
16 0.16
17 0.62
2 -0.55
24 0.4
28 0.15
29 0.15
3 -0.7
30 0.4
31 0.15
32 0.15
4 -0.51
5 -0.62
6 -0.56
7 0.28
8 0.25
9 0.28

>  <PUBCHEM_EFFECTIVE_ROTOR_COUNT>  (1) 
7

>  <PUBCHEM_PHARMACOPHORE_FEATURES>  (1) 
7
1 1 acceptor
1 2 donor
1 4 donor
1 5 acceptor
1 6 acceptor
4 2 3 4 10 cation
6 5 11 13 14 15 16 rings

>  <PUBCHEM_HEAVY_ATOM_COUNT>  (1) 
17

>  <PUBCHEM_ATOM_DEF_STEREO_COUNT>  (1) 
0

>  <PUBCHEM_ATOM_UDEF_STEREO_COUNT>  (1) 
0

>  <PUBCHEM_BOND_DEF_STEREO_COUNT>  (1) 
0

>  <PUBCHEM_BOND_UDEF_STEREO_COUNT>  (1) 
0

>  <PUBCHEM_ISOTOPIC_ATOM_COUNT>  (1) 
0

>  <PUBCHEM_COMPONENT_COUNT>  (1) 
1

>  <PUBCHEM_CACTVS_TAUTO_COUNT>  (1) 
3

>  <PUBCHEM_CONFORMER_ID>  (1) 
0000BEE100000001

>  <PUBCHEM_MMFF94_ENERGY>  (1) 
56.6458

>  <PUBCHEM_FEATURE_SELFOVERLAP>  (1) 
35.556

>  <PUBCHEM_SHAPE_FINGERPRINT>  (1) 
116883 192 17979071578991897322
12173636 292 17908139128825190446
12500047 106 17910675698425409504
14178000 22 18054500576528504200
14508225 48 17765722321464256022
18186145 218 18128275551646607920
20621476 13 18337386050506298389
20671657 1 18339931411571834351
21524375 3 18048880985162388483
23402539 116 17336187538306515287
3071541 12 18339930320286397611
3091708 16 8970044012581673106
532947 4 18342184366837490254
621550 34 18192451864171193499
68521 5 17618513081813807382
7364860 26 18340491075453469355
81228 2 17405724579141566154

>  <PUBCHEM_SHAPE_MULTIPOLES>  (1) 
319.08
7.53
4.83
0.78
9.21
2.63
-0.03
-6.23
-0.34
-3.89
-1.26
0.29
0.05
1.4

>  <PUBCHEM_SHAPE_SELFOVERLAP>  (1) 
638.216

>  <PUBCHEM_SHAPE_VOLUME>  (1) 
184.2

>  <PUBCHEM_COORDINATE_TYPE>  (1) 
2
5
10

$$$$
