48863
     RDKit          3D

 24 27  0  0  0  0  0  0  0  0999 V2000
    2.5589    0.0982    1.3322 O   0  0  0  0  0  0  0  0  0  0  0  0
    3.7153   -0.2203   -0.7110 O   0  0  0  0  0  0  0  0  0  0  0  0
    0.8949    2.2585   -2.6536 O   0  0  0  0  0  0  0  0  0  0  0  0
   -2.8307    1.8133    1.3380 N   0  0  0  0  0  0  0  0  0  0  0  0
   -3.2841   -2.3056   -0.8789 N   0  0  0  0  0  0  0  0  0  0  0  0
    0.7991    0.0056   -1.0272 N   0  0  0  0  0  0  0  0  0  0  0  0
   -3.0843   -0.2485    0.2392 N   0  0  0  0  0  0  0  0  0  0  0  0
   -1.2280   -1.1710   -0.9694 N   0  0  0  0  0  0  0  0  0  0  0  0
   -0.9965    0.9318    0.1628 N   0  0  0  0  0  0  0  0  0  0  0  0
    1.6746    1.1222   -0.7021 C   0  0  0  0  0  0  0  0  0  0  0  0
    1.8146    1.2073    0.8249 C   0  0  0  0  0  0  0  0  0  0  0  0
    3.0440    0.8686   -1.3475 C   0  0  0  0  0  0  0  0  0  0  0  0
    3.8328    0.0007    0.6949 C   0  0  0  0  0  0  0  0  0  0  0  0
    1.0443    2.4026   -1.2544 C   0  0  0  0  0  0  0  0  0  0  0  0
   -4.1926    2.3043    1.0911 C   0  0  0  0  0  0  0  0  0  0  0  0
   -3.8865    1.5230    2.3166 C   0  0  0  0  0  0  0  0  0  0  0  0
   -4.1739   -2.9434    0.1000 C   0  0  0  0  0  0  0  0  0  0  0  0
   -4.7381   -2.1778   -1.0408 C   0  0  0  0  0  0  0  0  0  0  0  0
    4.5612   -1.1908    1.2928 C   0  0  0  0  0  0  0  0  0  0  0  0
   -2.2762    0.7807    0.5405 C   0  0  0  0  0  0  0  0  0  0  0  0
   -2.4928   -1.1860   -0.5184 C   0  0  0  0  0  0  0  0  0  0  0  0
   -0.5093   -0.0802   -0.5999 C   0  0  0  0  0  0  0  0  0  0  0  0
    3.7795   -2.4835    1.0520 C   0  0  0  0  0  0  0  0  0  0  0  0
    5.9739   -1.3099    0.7181 C   0  0  0  0  0  0  0  0  0  0  0  0
  1 11  1  0
  1 13  1  0
  2 12  1  0
  2 13  1  0
  3 14  1  0
  4 15  1  0
  4 16  1  0
  4 20  1  0
  5 17  1  0
  5 18  1  0
  5 21  1  0
  6 10  1  0
  6 22  1  0
  7 20  2  0
  7 21  1  0
  8 21  2  0
  8 22  1  0
  9 20  1  0
  9 22  2  0
 10 11  1  0
 10 12  1  0
 10 14  1  0
 13 19  1  0
 15 16  1  0
 17 18  1  0
 19 23  1  0
 19 24  1  0
M  END
>  <PUBCHEM_COMPOUND_CID>  (1) 
48863

>  <PUBCHEM_CONFORMER_RMSD>  (1) 
0.8

>  <PUBCHEM_CONFORMER_DIVERSEORDER>  (1) 
1
23
15
26
74
67
40
5
54
4
36
45
73
7
38
76
58
51
61
41
60
57
20
35
42
44
59
70
3
53
2
63
13
32
31
66
71
22
65
33
72
17
56
49
77
14
18
47
50
75
19
27
9
6
37
43
69
46
10
24
55
11
8
28
25
34
64
52
39
62
48
30
21
29
68
12
16

>  <PUBCHEM_MMFF94_PARTIAL_CHARGES>  (1) 
31
1 -0.56
10 0.37
11 0.28
12 0.28
13 0.56
14 0.28
15 -0.03
16 -0.03
17 -0.03
18 -0.03
2 -0.56
20 0.72
21 0.72
22 0.72
3 -0.68
32 0.4
33 0.1
34 0.1
35 0.1
36 0.1
37 0.1
38 0.1
39 0.1
4 -0.44
40 0.1
48 0.4
5 -0.44
6 -0.87
7 -0.62
8 -0.62
9 -0.62

>  <PUBCHEM_EFFECTIVE_ROTOR_COUNT>  (1) 
8.4

>  <PUBCHEM_PHARMACOPHORE_FEATURES>  (1) 
11
1 1 acceptor
1 2 acceptor
1 3 acceptor
1 3 donor
1 6 donor
3 19 23 24 hydrophobe
4 4 7 9 20 cation
4 5 7 8 21 cation
4 6 8 9 22 cation
6 1 2 10 11 12 13 rings
6 7 8 9 20 21 22 rings

>  <PUBCHEM_HEAVY_ATOM_COUNT>  (1) 
24

>  <PUBCHEM_ATOM_DEF_STEREO_COUNT>  (1) 
0

>  <PUBCHEM_ATOM_UDEF_STEREO_COUNT>  (1) 
0

>  <PUBCHEM_BOND_DEF_STEREO_COUNT>  (1) 
0

>  <PUBCHEM_BOND_UDEF_STEREO_COUNT>  (1) 
0

>  <PUBCHEM_ISOTOPIC_ATOM_COUNT>  (1) 
0

>  <PUBCHEM_COMPONENT_COUNT>  (1) 
1

>  <PUBCHEM_CACTVS_TAUTO_COUNT>  (1) 
3

>  <PUBCHEM_CONFORMER_ID>  (1) 
0000BEDF00000001

>  <PUBCHEM_MMFF94_ENERGY>  (1) 
104.6113

>  <PUBCHEM_FEATURE_SELFOVERLAP>  (1) 
55.987

>  <PUBCHEM_SHAPE_FINGERPRINT>  (1) 
10042902 136 18338239267741206118
10319926 262 17632303337237992750
11036077 4 18271239409536087227
11545043 162 17346328080962362222
11578080 2 18191560095257849468
11725454 13 15840414874674690840
12107183 9 18125440804717428594
12403259 327 17702657749030519624
12403259 415 16056891238209478780
12553582 1 17531245020389829818
12596602 18 18131064940280750162
12633257 1 18059572434731572352
12788726 201 18128266773013205011
12892183 10 18059278955489658530
13009979 54 18410862078799638408
13103583 49 18341328890813795170
13533116 47 18265327494342974683
13583140 156 16702008760747616026
14178342 30 18272094863736409415
14420673 8 17914057504224849766
15420108 30 17906729199132681577
15537594 2 18115875105486333378
15842332 3 18263663898959022229
16752209 62 18129673014194061087
17349148 13 18343579659998736301
173720 79 18340215107505527553
1813 80 17823147730992233702
19141452 34 18337951164948819416
19784866 240 18187638132822412134
19784866 34 11383839293929358998
20600515 1 17775013340589836520
20642791 105 18342454842708605401
20645477 70 17168416185902194038
20693207 138 14779848073361244480
21033648 29 16272210769261574696
21065198 48 18341330076230075816
21065201 7 17774458121471169180
21713013 43 14490484079219968616
22182313 1 16486430835841345077
23503958 8 18341606031672859459
23557571 272 17203067234859220877
23559900 14 17970899183956376119
23598291 2 18261680345400995940
25147074 1 18337122257688393141
312423 11 18264219169442028029
312425 54 18199738164577645882
3633792 109 18187910824912476799
5104073 3 18131343116574793642
5486654 36 18334861623148170210
56633871 153 18121216476670138754
573450 72 18342458136051683715
6913067 236 16343416315150729839
7097593 13 18409733923950394058
7615 1 18264499536512654101

>  <PUBCHEM_SHAPE_MULTIPOLES>  (1) 
446.41
10.96
3.05
1.83
4.1
0.88
0.13
6.18
-4.11
-3.01
0.21
-0.16
-1.03
-3.57

>  <PUBCHEM_SHAPE_SELFOVERLAP>  (1) 
933.165

>  <PUBCHEM_SHAPE_VOLUME>  (1) 
247.5

>  <PUBCHEM_COORDINATE_TYPE>  (1) 
2
5
10

$$$$
