48878
     RDKit          3D

 15 15  0  0  0  0  0  0  0  0999 V2000
   -1.4079    2.9855    0.2642 O   0  0  0  0  0  0  0  0  0  0  0  0
   -1.1954   -0.5877   -0.0923 N   0  0  0  0  0  0  0  0  0  0  0  0
    0.3947    1.1405    0.0994 N   0  0  0  0  0  0  0  0  0  0  0  0
   -1.8541    1.6830    0.1685 N   0  0  0  0  0  0  0  0  0  0  0  0
    2.8460   -1.5894    0.4930 N   0  0  0  0  0  0  0  0  0  0  0  0
   -2.6149   -0.9670   -0.1282 C   0  0  0  0  0  0  0  0  0  0  0  0
   -3.2730   -0.2611   -1.3133 C   0  0  0  0  0  0  0  0  0  0  0  0
   -2.6905   -2.4841   -0.2963 C   0  0  0  0  0  0  0  0  0  0  0  0
   -3.2625   -0.5384    1.1882 C   0  0  0  0  0  0  0  0  0  0  0  0
   -0.9130    0.6702    0.0419 C   0  0  0  0  0  0  0  0  0  0  0  0
    1.6171    0.4376    0.0490 C   0  0  0  0  0  0  0  0  0  0  0  0
    2.7578    1.0344   -0.4670 C   0  0  0  0  0  0  0  0  0  0  0  0
    1.7071   -0.8613    0.5124 C   0  0  0  0  0  0  0  0  0  0  0  0
    3.9486    0.3173   -0.5037 C   0  0  0  0  0  0  0  0  0  0  0  0
    3.9400   -0.9795   -0.0157 C   0  0  0  0  0  0  0  0  0  0  0  0
  1  4  1  0
  2  6  1  0
  2 10  2  0
  3 10  1  0
  3 11  1  0
  4 10  1  0
  5 13  2  0
  5 15  1  0
  6  7  1  0
  6  8  1  0
  6  9  1  0
 11 12  2  0
 11 13  1  0
 12 14  1  0
 14 15  2  0
M  END
>  <PUBCHEM_COMPOUND_CID>  (1) 
48878

>  <PUBCHEM_CONFORMER_RMSD>  (1) 
0.6

>  <PUBCHEM_CONFORMER_DIVERSEORDER>  (1) 
1
15
7
5
3
9
13
11
2
12
14
4
10
8
6

>  <PUBCHEM_MMFF94_PARTIAL_CHARGES>  (1) 
19
1 -0.38
10 0.55
11 0.1
12 -0.15
13 0.16
14 -0.15
15 0.16
2 -0.7
25 0.4
26 0.4
27 0.15
28 0.15
29 0.15
3 -0.55
30 0.15
31 0.4
4 -0.47
5 -0.62
6 0.25

>  <PUBCHEM_EFFECTIVE_ROTOR_COUNT>  (1) 
4

>  <PUBCHEM_PHARMACOPHORE_FEATURES>  (1) 
6
1 3 donor
1 4 donor
1 5 acceptor
4 2 3 4 10 cation
4 6 7 8 9 hydrophobe
6 5 11 12 13 14 15 rings

>  <PUBCHEM_HEAVY_ATOM_COUNT>  (1) 
15

>  <PUBCHEM_ATOM_DEF_STEREO_COUNT>  (1) 
0

>  <PUBCHEM_ATOM_UDEF_STEREO_COUNT>  (1) 
0

>  <PUBCHEM_BOND_DEF_STEREO_COUNT>  (1) 
0

>  <PUBCHEM_BOND_UDEF_STEREO_COUNT>  (1) 
0

>  <PUBCHEM_ISOTOPIC_ATOM_COUNT>  (1) 
0

>  <PUBCHEM_COMPONENT_COUNT>  (1) 
1

>  <PUBCHEM_CACTVS_TAUTO_COUNT>  (1) 
4

>  <PUBCHEM_CONFORMER_ID>  (1) 
0000BEEE00000001

>  <PUBCHEM_MMFF94_ENERGY>  (1) 
69.3357

>  <PUBCHEM_FEATURE_SELFOVERLAP>  (1) 
30.493

>  <PUBCHEM_SHAPE_FINGERPRINT>  (1) 
10616163 171 18412547595865890814
10618630 7 18408324414436368030
12553582 1 18412263973204682211
12932764 1 17988921171820633312
13296908 3 18334853960915652263
14144814 61 18410857642267018866
14965852 173 18339924805727497208
15375462 189 18337962297477839499
15442244 35 18120372064940867450
16752209 62 18267850719109948697
16945 1 18411695512829104816
18186145 218 17167860859378377986
19107657 46 18411982502639256326
19422 9 18270971257331514126
200 152 18409158926576790742
20281407 28 18341893029998267130
20281475 54 18341897428118806522
20291156 8 18339363088266269975
20361792 2 18129654330848862165
20442098 301 18413107234494095474
20645477 70 18335132081591937958
20871998 184 18272373023045690837
20871999 31 18261383512117334383
21501502 16 18335984151864049720
21634736 98 18336549434063879790
22485316 2 18411979204072334582
23402539 116 18334287708649267158
23402655 69 18259703389466604910
23557571 272 17988365880110678104
23559900 14 18340475734320879032
25610 137 18262525904239358624
2748010 2 17543358606006852944
2871803 45 18335135414549570718
3312278 4 18335137630715590187
57096353 35 18334864947895559668
58051976 100 18189621548819684924
58051976 378 18412263960973771846
603831 33 18335700563779234302
8030462 33 18407758127551944036
9709674 26 18270683065242412558

>  <PUBCHEM_SHAPE_MULTIPOLES>  (1) 
282.9
7.28
2.22
0.9
3.18
0.74
-0.05
-2.54
-0.72
-1.18
0.15
-0.6
-0.08
-0.48

>  <PUBCHEM_SHAPE_SELFOVERLAP>  (1) 
574.855

>  <PUBCHEM_SHAPE_VOLUME>  (1) 
163.5

>  <PUBCHEM_COORDINATE_TYPE>  (1) 
2
5
10

$$$$
