48895
     RDKit          3D

 13 13  0  0  1  0  0  0  0  0999 V2000
    1.4229   -0.0312    1.8612 O   0  0  0  0  0  0  0  0  0  0  0  0
   -0.1250   -1.7925    0.0745 O   0  0  0  0  0  0  0  0  0  0  0  0
    3.5528    0.0829   -0.0360 N   0  0  0  0  0  0  0  0  0  0  0  0
    1.2472    0.6532    0.6177 C   0  0  0  0  0  0  0  0  0  0  0  0
    2.1500    0.0217   -0.4658 C   0  0  0  0  0  0  0  0  0  0  0  0
   -0.2295    0.5920    0.2904 C   0  0  0  0  0  0  0  0  0  0  0  0
    2.0378    0.7364   -1.8138 C   0  0  0  0  0  0  0  0  0  0  0  0
   -0.8320   -0.6283    0.0371 C   0  0  0  0  0  0  0  0  0  0  0  0
   -0.9479    1.7753    0.2528 C   0  0  0  0  0  0  0  0  0  0  0  0
   -2.1936   -0.6671   -0.2633 C   0  0  0  0  0  0  0  0  0  0  0  0
   -2.3095    1.7366   -0.0475 C   0  0  0  0  0  0  0  0  0  0  0  0
   -2.9322    0.5154   -0.3057 C   0  0  0  0  0  0  0  0  0  0  0  0
   -0.8410   -2.9945   -0.2017 C   0  0  0  0  0  0  0  0  0  0  0  0
  1  4  1  0
  2  8  1  0
  2 13  1  0
  3  5  1  0
  4  5  1  0
  4  6  1  0
  5  7  1  0
  6  8  2  0
  6  9  1  0
  8 10  1  0
  9 11  2  0
 10 12  2  0
 11 12  1  0
M  END
>  <PUBCHEM_COMPOUND_CID>  (1) 
48895

>  <PUBCHEM_CONFORMER_RMSD>  (1) 
0.6

>  <PUBCHEM_CONFORMER_DIVERSEORDER>  (1) 
2
25
10
16
23
19
20
22
9
11
26
13
15
18
12
24
7
21
14
6
4
8
3
17
1
5

>  <PUBCHEM_MMFF94_PARTIAL_CHARGES>  (1) 
19
1 -0.68
10 -0.15
11 -0.15
12 -0.15
13 0.28
19 0.15
2 -0.36
20 0.36
21 0.36
22 0.15
23 0.4
24 0.15
25 0.15
3 -0.99
4 0.42
5 0.27
6 -0.14
8 0.08
9 -0.15

>  <PUBCHEM_EFFECTIVE_ROTOR_COUNT>  (1) 
3

>  <PUBCHEM_PHARMACOPHORE_FEATURES>  (1) 
6
1 1 acceptor
1 1 donor
1 2 acceptor
1 3 cation
1 3 donor
6 6 8 9 10 11 12 rings

>  <PUBCHEM_HEAVY_ATOM_COUNT>  (1) 
13

>  <PUBCHEM_ATOM_DEF_STEREO_COUNT>  (1) 
0

>  <PUBCHEM_ATOM_UDEF_STEREO_COUNT>  (1) 
2

>  <PUBCHEM_BOND_DEF_STEREO_COUNT>  (1) 
0

>  <PUBCHEM_BOND_UDEF_STEREO_COUNT>  (1) 
0

>  <PUBCHEM_ISOTOPIC_ATOM_COUNT>  (1) 
0

>  <PUBCHEM_COMPONENT_COUNT>  (1) 
1

>  <PUBCHEM_CACTVS_TAUTO_COUNT>  (1) 
1

>  <PUBCHEM_CONFORMER_ID>  (1) 
0000BEFF00000002

>  <PUBCHEM_MMFF94_ENERGY>  (1) 
39.0213

>  <PUBCHEM_FEATURE_SELFOVERLAP>  (1) 
30.45

>  <PUBCHEM_SHAPE_FINGERPRINT>  (1) 
1 1 18122344575446703895
12423570 1 11395132669910643731
12524768 44 17911790590040655577
12716758 59 18413108385423725752
13380535 21 18125169230030945601
13538477 17 18114732849684209155
13898156 1 17896302770309182706
14817 1 12019300909610099430
14993402 34 18186799166821840436
15207287 21 17632290164435964286
15279308 132 18272082790577831714
15775835 57 18271244902635572185
161256 15 17400930094558979491
16945 1 18340497749753194773
18534176 82 18201168740473130700
193761 8 17690838286884393769
19837323 101 18338256893542741865
20201158 50 17489592246848201052
20511035 2 17478033970364237981
20645476 183 17822005428236320995
20871998 22 17547291567547352627
21040471 1 18411971447487868739
22802520 49 18201172038739053590
23402539 116 18342727525006397420
23526113 38 17561089098646254286
23552423 10 17977947882756523583
23557571 272 17983026827570948108
23559900 14 18273214184750003062
2748010 2 18339641127458943975
3071541 158 17111288516649786237
430814 3 17676213471916311994
5084963 1 18060419118629599449
528886 8 18410012091944782889
7364860 26 17838335173084424615
77492 1 17821722832309978488
81228 2 18052246586355727803

>  <PUBCHEM_SHAPE_MULTIPOLES>  (1) 
250.81
4.07
2.22
1.14
1.5
1.79
0.02
-1.08
0.74
-1.36
0.11
0.86
-0.2
-0.21

>  <PUBCHEM_SHAPE_SELFOVERLAP>  (1) 
512.138

>  <PUBCHEM_SHAPE_VOLUME>  (1) 
146.1

>  <PUBCHEM_COORDINATE_TYPE>  (1) 
2
5
10

$$$$
