48897
     RDKit          3D

 24 26  0  0  1  0  0  0  0  0999 V2000
   -1.2283   -1.1282   -1.8143 O   0  0  0  0  0  0  0  0  0  0  0  0
    0.6879   -0.1945    0.1271 N   0  0  0  0  0  0  0  0  0  0  0  0
   -0.7533   -0.1883    0.3758 C   0  0  0  0  0  0  0  0  0  0  0  0
   -1.4481   -1.3034   -0.4153 C   0  0  0  0  0  0  0  0  0  0  0  0
    1.2751   -1.4632    0.5564 C   0  0  0  0  0  0  0  0  0  0  0  0
    1.3301    0.9248    0.8152 C   0  0  0  0  0  0  0  0  0  0  0  0
   -2.9407   -1.3104   -0.1685 C   0  0  0  0  0  0  0  0  0  0  0  0
    2.7457   -1.5301    0.2614 C   0  0  0  0  0  0  0  0  0  0  0  0
    0.7521    2.2465    0.3989 C   0  0  0  0  0  0  0  0  0  0  0  0
   -3.4505   -2.0698    0.8707 C   0  0  0  0  0  0  0  0  0  0  0  0
   -3.7649   -0.5571   -0.9867 C   0  0  0  0  0  0  0  0  0  0  0  0
    3.1799   -2.0375   -0.9576 C   0  0  0  0  0  0  0  0  0  0  0  0
    1.3032    2.9288   -0.6795 C   0  0  0  0  0  0  0  0  0  0  0  0
    3.6584   -1.0833    1.2098 C   0  0  0  0  0  0  0  0  0  0  0  0
   -0.3285    2.7745    1.0957 C   0  0  0  0  0  0  0  0  0  0  0  0
   -4.8266   -2.0763    1.0986 C   0  0  0  0  0  0  0  0  0  0  0  0
   -5.1410   -0.5635   -0.7587 C   0  0  0  0  0  0  0  0  0  0  0  0
    4.5461   -2.0995   -1.2320 C   0  0  0  0  0  0  0  0  0  0  0  0
    0.7661    4.1566   -1.0665 C   0  0  0  0  0  0  0  0  0  0  0  0
    5.0246   -1.1452    0.9354 C   0  0  0  0  0  0  0  0  0  0  0  0
   -0.8655    4.0023    0.7085 C   0  0  0  0  0  0  0  0  0  0  0  0
   -5.6718   -1.3231    0.2839 C   0  0  0  0  0  0  0  0  0  0  0  0
    5.4684   -1.6534   -0.2856 C   0  0  0  0  0  0  0  0  0  0  0  0
   -0.3181    4.6933   -0.3726 C   0  0  0  0  0  0  0  0  0  0  0  0
  1  4  1  0
  2  3  1  0
  2  5  1  0
  2  6  1  0
  3  4  1  0
  4  7  1  0
  5  8  1  0
  6  9  1  0
  7 10  2  0
  7 11  1  0
  8 12  2  0
  8 14  1  0
  9 13  2  0
  9 15  1  0
 10 16  1  0
 11 17  2  0
 12 18  1  0
 13 19  1  0
 14 20  2  0
 15 21  2  0
 16 22  2  0
 17 22  1  0
 18 23  2  0
 19 24  2  0
 20 23  1  0
 21 24  1  0
M  END
>  <PUBCHEM_COMPOUND_CID>  (1) 
48897

>  <PUBCHEM_CONFORMER_RMSD>  (1) 
0.8

>  <PUBCHEM_CONFORMER_DIVERSEORDER>  (1) 
1
3
11
9
15
8
2
21
18
16
10
5
14
6
20
12
13
17
7
19
4

>  <PUBCHEM_MMFF94_PARTIAL_CHARGES>  (1) 
40
1 -0.68
10 -0.15
11 -0.15
12 -0.15
13 -0.15
14 -0.15
15 -0.15
16 -0.15
17 -0.15
18 -0.15
19 -0.15
2 -0.81
20 -0.15
21 -0.15
22 -0.15
23 -0.15
24 -0.15
3 0.27
32 0.15
33 0.15
34 0.15
35 0.15
36 0.15
37 0.15
38 0.4
39 0.15
4 0.42
40 0.15
41 0.15
42 0.15
43 0.15
44 0.15
45 0.15
46 0.15
47 0.15
5 0.41
6 0.41
7 -0.14
8 -0.14
9 -0.14

>  <PUBCHEM_EFFECTIVE_ROTOR_COUNT>  (1) 
7

>  <PUBCHEM_PHARMACOPHORE_FEATURES>  (1) 
6
1 1 acceptor
1 1 donor
1 2 cation
6 7 10 11 16 17 22 rings
6 8 12 14 18 20 23 rings
6 9 13 15 19 21 24 rings

>  <PUBCHEM_HEAVY_ATOM_COUNT>  (1) 
24

>  <PUBCHEM_ATOM_DEF_STEREO_COUNT>  (1) 
0

>  <PUBCHEM_ATOM_UDEF_STEREO_COUNT>  (1) 
1

>  <PUBCHEM_BOND_DEF_STEREO_COUNT>  (1) 
0

>  <PUBCHEM_BOND_UDEF_STEREO_COUNT>  (1) 
0

>  <PUBCHEM_ISOTOPIC_ATOM_COUNT>  (1) 
0

>  <PUBCHEM_COMPONENT_COUNT>  (1) 
1

>  <PUBCHEM_CACTVS_TAUTO_COUNT>  (1) 
1

>  <PUBCHEM_CONFORMER_ID>  (1) 
0000BF0100000001

>  <PUBCHEM_MMFF94_ENERGY>  (1) 
78.7448

>  <PUBCHEM_FEATURE_SELFOVERLAP>  (1) 
30.446

>  <PUBCHEM_SHAPE_FINGERPRINT>  (1) 
10688039 33 18412263896143236214
10815517 723 18127698132698115545
10940486 97 17916299622702033582
11045515 52 18335701628466796020
11265709 11 18411420600673198760
11386260 185 18265031683662210237
12156800 1 17841180794971285413
12160290 23 17765967546679247680
12166972 35 17988919024848961307
12422481 6 17702961222760920883
12516196 113 18410854369296821499
12788726 201 18190736440630662522
13590594 115 18336837411637206441
13690498 29 17842294566571310518
13911987 19 18115888411295068278
14114211 68 17610925743334425709
14251757 5 18190460459222805509
14363568 33 18266743669445835861
14556957 393 18117589291431900236
14840074 17 17846495972050937126
14955137 171 18412548742458660903
15081414 286 18339075016214758464
151778 21 17831581242791358693
16087824 20 18194121807833697017
17357779 13 18128235840510883900
1813 80 18272380762624516878
18785283 64 18119530096215051099
20739085 24 18341898544920885274
21033648 29 17631433627830316467
21041028 32 18411416215432695581
21049683 271 18115317811381933092
21120745 212 18340220583083083764
21285901 2 17988085487334065686
21365058 113 18336557087479187351
21641784 216 18337126574742332292
21703447 108 18267294336700516122
23175994 123 18409729569318078191
23557571 272 18340200774761914806
23558518 356 17684086881631691714
23559900 14 18262511624143278963
23566358 27 18050286169982204151
283562 15 18263925445493201402
314173 85 18342739598096487554
340366 18 18201151165541373983
469060 322 18263935349534363704
513202 73 18126297332802999590
5969126 39 18341048515575636798
59755656 520 9151166533208031338
621550 5 17967811669616959431
6442390 28 16895686956564689825
6443956 14 18336826497856054044
6823239 73 16733258071157531375
68521 5 18339077073603871602
7164475 11 18265623087367518678
7399639 24 18129645449505678314
7495541 125 18041281062023121235
81228 2 18267302024010584376
8863177 126 17897175830351709147
9841814 1 18187915235659325674
9925002 15 18193861265862715228
9981440 41 14350627463135628374

>  <PUBCHEM_SHAPE_MULTIPOLES>  (1) 
483.06
10.61
5.34
1.28
2.76
10.04
0.15
-13.4
0.02
-0.59
0.44
-0.15
-0.15
0.52

>  <PUBCHEM_SHAPE_SELFOVERLAP>  (1) 
1035.872

>  <PUBCHEM_SHAPE_VOLUME>  (1) 
266.3

>  <PUBCHEM_COORDINATE_TYPE>  (1) 
2
5
10

$$$$
