48905
     RDKit          3D

 21 23  0  0  1  0  0  0  0  0999 V2000
   -6.7594    1.0925   -0.0062 F   0  0  0  0  0  0  0  0  0  0  0  0
   -0.5206    0.4843   -0.2415 O   0  0  0  0  0  0  0  0  0  0  0  0
    6.0678    1.5329    0.4692 O   0  0  0  0  0  0  0  0  0  0  0  0
    4.0507    1.4826    1.5012 O   0  0  0  0  0  0  0  0  0  0  0  0
   -0.9114   -1.6970    0.2342 N   0  0  0  0  0  0  0  0  0  0  0  0
    4.4115    0.0217   -0.4230 C   0  0  0  0  0  0  0  0  0  0  0  0
    3.0199   -0.4896   -0.2390 C   0  0  0  0  0  0  0  0  0  0  0  0
    0.6845   -0.1549   -0.1769 C   0  0  0  0  0  0  0  0  0  0  0  0
    1.9455    0.3979   -0.3632 C   0  0  0  0  0  0  0  0  0  0  0  0
    0.4414   -1.4890    0.1145 C   0  0  0  0  0  0  0  0  0  0  0  0
    2.8187   -1.8440    0.0544 C   0  0  0  0  0  0  0  0  0  0  0  0
    1.5294   -2.3653    0.2356 C   0  0  0  0  0  0  0  0  0  0  0  0
    4.6803    0.6053   -1.8239 C   0  0  0  0  0  0  0  0  0  0  0  0
   -1.4216   -0.5051    0.0149 C   0  0  0  0  0  0  0  0  0  0  0  0
   -2.7981   -0.0926    0.0097 C   0  0  0  0  0  0  0  0  0  0  0  0
    4.7968    1.0753    0.6201 C   0  0  0  0  0  0  0  0  0  0  0  0
   -3.1323    1.2404   -0.2459 C   0  0  0  0  0  0  0  0  0  0  0  0
   -3.8111   -1.0223    0.2604 C   0  0  0  0  0  0  0  0  0  0  0  0
   -4.4686    1.6403   -0.2505 C   0  0  0  0  0  0  0  0  0  0  0  0
   -5.1474   -0.6224    0.2556 C   0  0  0  0  0  0  0  0  0  0  0  0
   -5.4761    0.7090    0.0004 C   0  0  0  0  0  0  0  0  0  0  0  0
  1 21  1  0
  2  8  1  0
  2 14  1  0
  3 16  1  0
  4 16  2  0
  5 10  1  0
  5 14  2  0
  6  7  1  0
  6 13  1  0
  6 16  1  0
  7  9  1  0
  7 11  2  0
  8  9  2  0
  8 10  1  0
 10 12  2  0
 11 12  1  0
 14 15  1  0
 15 17  2  0
 15 18  1  0
 17 19  1  0
 18 20  2  0
 19 21  2  0
 20 21  1  0
M  END
>  <PUBCHEM_COMPOUND_CID>  (1) 
48905

>  <PUBCHEM_CONFORMER_RMSD>  (1) 
0.6

>  <PUBCHEM_CONFORMER_DIVERSEORDER>  (1) 
1
2
4
3

>  <PUBCHEM_MMFF94_PARTIAL_CHARGES>  (1) 
28
1 -0.19
10 0.23
11 -0.15
12 -0.15
14 0.43
15 0.05
16 0.66
17 -0.15
18 -0.15
19 -0.15
2 -0.28
20 -0.15
21 0.19
23 0.15
24 0.15
25 0.15
29 0.15
3 -0.65
30 0.15
31 0.15
32 0.15
33 0.5
4 -0.57
5 -0.57
6 0.2
7 -0.14
8 0.14
9 -0.15

>  <PUBCHEM_EFFECTIVE_ROTOR_COUNT>  (1) 
3

>  <PUBCHEM_PHARMACOPHORE_FEATURES>  (1) 
7
1 13 hydrophobe
1 3 acceptor
1 4 acceptor
3 3 4 16 anion
5 2 5 8 10 14 rings
6 15 17 18 19 20 21 rings
6 7 8 9 10 11 12 rings

>  <PUBCHEM_HEAVY_ATOM_COUNT>  (1) 
21

>  <PUBCHEM_ATOM_DEF_STEREO_COUNT>  (1) 
0

>  <PUBCHEM_ATOM_UDEF_STEREO_COUNT>  (1) 
1

>  <PUBCHEM_BOND_DEF_STEREO_COUNT>  (1) 
0

>  <PUBCHEM_BOND_UDEF_STEREO_COUNT>  (1) 
0

>  <PUBCHEM_ISOTOPIC_ATOM_COUNT>  (1) 
0

>  <PUBCHEM_COMPONENT_COUNT>  (1) 
1

>  <PUBCHEM_CACTVS_TAUTO_COUNT>  (1) 
1

>  <PUBCHEM_CONFORMER_ID>  (1) 
0000BF0900000001

>  <PUBCHEM_MMFF94_ENERGY>  (1) 
44.1369

>  <PUBCHEM_FEATURE_SELFOVERLAP>  (1) 
35.698

>  <PUBCHEM_SHAPE_FINGERPRINT>  (1) 
10 15 18113339738355579433
10670039 82 18262253118562172572
11089746 13 18131344211611968654
11128504 68 15985101924760749976
11595378 159 17241313694864747789
12107183 9 17471009177699771945
12236239 1 18059855043858807879
12403259 415 18188486869957348525
12633257 1 16588025740212098956
12730499 353 18271815617995723510
12969540 114 17917422137984021423
13533116 47 18339643321860509459
13685833 64 9511457840524008061
13955234 65 18266740190738981106
14461889 52 18041287638282495555
14528608 73 18344144795584206279
15196674 1 18335703802105642511
15788980 27 12324242780283095651
1601671 61 18259706705229090140
16079462 125 18187353299866864029
18222031 100 9655579612832117086
20645477 70 18270402659428001390
21033648 29 18199740496470236544
21150785 3 16056592184005589021
21452121 103 18409442558228724066
221357 26 17346601854904696208
23402539 116 18408881863059104823
23402655 69 18341612590546791071
23559900 14 18051969221520697195
245318 6 16663767909447743636
2916195 48 18342734160873320344
293599 30 18412265042698933718
29717793 49 16415205537708734852
300161 21 18335134276836651575
335352 9 18410294688710058326
34797466 226 17489873751842346381
34934 24 18413384349778443862
350125 39 18262798454975693702
3545911 37 18408608037297607927
4072396 5 18187638098958182170
4073 2 18040443208377050467
4340502 62 16588026800995298667
465052 167 8430312459173151576
474 4 17967542267476923198
495365 180 17918268758481568522
5104073 3 18261678060916141067
542803 24 17603589633832739895
59682541 52 17203062811459605660
960060 61 13614241499178686096

>  <PUBCHEM_SHAPE_MULTIPOLES>  (1) 
402.31
14.27
1.92
0.91
6.79
0.58
-0.11
-7.59
0.39
-0.63
0.23
-1.32
-0.3
0.62

>  <PUBCHEM_SHAPE_SELFOVERLAP>  (1) 
891.703

>  <PUBCHEM_SHAPE_VOLUME>  (1) 
217.8

>  <PUBCHEM_COORDINATE_TYPE>  (1) 
2
5
10

$$$$
