48900
     RDKit          3D

 14 14  0  0  1  0  0  0  0  0999 V2000
    3.2093   -2.2767   -0.3377 F   0  0  0  0  0  0  0  0  0  0  0  0
   -0.5184    0.9676   -1.8367 O   0  0  0  0  0  0  0  0  0  0  0  0
   -2.7364    0.5374   -0.0524 N   0  0  0  0  0  0  0  0  0  0  0  0
   -1.3786    0.1332    0.2775 C   0  0  0  0  0  0  0  0  0  0  0  0
   -0.3555    1.0375   -0.4207 C   0  0  0  0  0  0  0  0  0  0  0  0
   -3.7102   -0.3275    0.6125 C   0  0  0  0  0  0  0  0  0  0  0  0
    1.0628    0.6299   -0.0872 C   0  0  0  0  0  0  0  0  0  0  0  0
   -3.5113   -1.7777    0.1806 C   0  0  0  0  0  0  0  0  0  0  0  0
   -5.1210    0.1525    0.2873 C   0  0  0  0  0  0  0  0  0  0  0  0
    1.4800   -0.6586   -0.3731 C   0  0  0  0  0  0  0  0  0  0  0  0
    1.9126    1.5542    0.4952 C   0  0  0  0  0  0  0  0  0  0  0  0
    2.7880   -1.0344   -0.0669 C   0  0  0  0  0  0  0  0  0  0  0  0
    3.2204    1.1785    0.8014 C   0  0  0  0  0  0  0  0  0  0  0  0
    3.6582   -0.1157    0.5202 C   0  0  0  0  0  0  0  0  0  0  0  0
  1 12  1  0
  2  5  1  0
  3  4  1  0
  3  6  1  0
  4  5  1  0
  5  7  1  0
  6  8  1  0
  6  9  1  0
  7 10  2  0
  7 11  1  0
 10 12  1  0
 11 13  2  0
 12 14  2  0
 13 14  1  0
M  END
>  <PUBCHEM_COMPOUND_CID>  (1) 
48900

>  <PUBCHEM_CONFORMER_RMSD>  (1) 
0.6

>  <PUBCHEM_CONFORMER_DIVERSEORDER>  (1) 
2
21
19
53
51
13
48
35
42
27
45
49
6
9
22
8
18
12
20
52
46
24
47
50
15
43
1
5
10
16
32
25
11
44
23
7
26
17
33
14
29
38
37
31
40
39
34
30
28
4
36
3
41

>  <PUBCHEM_MMFF94_PARTIAL_CHARGES>  (1) 
18
1 -0.19
10 -0.15
11 -0.15
12 0.19
13 -0.15
14 -0.15
19 0.36
2 -0.68
26 0.15
27 0.15
28 0.4
29 0.15
3 -0.9
30 0.15
4 0.27
5 0.42
6 0.27
7 -0.14

>  <PUBCHEM_EFFECTIVE_ROTOR_COUNT>  (1) 
4

>  <PUBCHEM_PHARMACOPHORE_FEATURES>  (1) 
6
1 2 acceptor
1 2 donor
1 3 cation
1 3 donor
3 6 8 9 hydrophobe
6 7 10 11 12 13 14 rings

>  <PUBCHEM_HEAVY_ATOM_COUNT>  (1) 
14

>  <PUBCHEM_ATOM_DEF_STEREO_COUNT>  (1) 
0

>  <PUBCHEM_ATOM_UDEF_STEREO_COUNT>  (1) 
1

>  <PUBCHEM_BOND_DEF_STEREO_COUNT>  (1) 
0

>  <PUBCHEM_BOND_UDEF_STEREO_COUNT>  (1) 
0

>  <PUBCHEM_ISOTOPIC_ATOM_COUNT>  (1) 
0

>  <PUBCHEM_COMPONENT_COUNT>  (1) 
1

>  <PUBCHEM_CACTVS_TAUTO_COUNT>  (1) 
1

>  <PUBCHEM_CONFORMER_ID>  (1) 
0000BF0400000002

>  <PUBCHEM_MMFF94_ENERGY>  (1) 
21.6817

>  <PUBCHEM_FEATURE_SELFOVERLAP>  (1) 
30.448

>  <PUBCHEM_SHAPE_FINGERPRINT>  (1) 
11543360 7 11242258480392832129
12251169 10 18202281420069670397
13296908 3 18187642496709261565
13675066 3 18259991500537137457
14115302 16 14417852557334506296
14252887 29 18261115183476003401
14289901 80 18201156654340233889
15501101 241 18408603690543096348
17834074 16 18409729551826771411
18186145 218 11311786067872924057
19141452 34 18408041827896843827
20279233 1 18408605881329565859
20281407 28 18187650175878626156
20281475 54 18335144171813502150
20361792 2 16805321123893040701
20645477 70 18342454820637904023
20871998 22 18334013861107290732
21065199 12 18342177791073391321
22169311 21 18410287034560930043
22485316 2 18410854378218474443
23402539 116 16298659517178118268
23557571 272 17676200247912961828
23559900 14 18413388739224230664
26918003 58 18342454850665414177
276578 36 14764354833639428964
3060560 45 11169906182852795416
31174 14 18412819184033263456
33824 294 18410290320010880386
42 15 18410577288498312113
581208 293 18336264634444702848
69090 78 18341890818665382323
81228 2 17313948502653607501
9709674 26 18336833103632111947

>  <PUBCHEM_SHAPE_MULTIPOLES>  (1) 
269.99
8.64
1.68
0.94
8.02
0.72
-0.29
1.86
2.1
-0.99
-0.07
-0.03
-0.23
0.57

>  <PUBCHEM_SHAPE_SELFOVERLAP>  (1) 
544.328

>  <PUBCHEM_SHAPE_VOLUME>  (1) 
159.9

>  <PUBCHEM_COORDINATE_TYPE>  (1) 
2
5
10

$$$$
