48908
     RDKit          3D

 21 22  0  0  1  0  0  0  0  0999 V2000
    0.1840    0.6484   -0.0393 O   0  0  0  0  0  0  0  0  0  0  0  0
   -0.0402   -1.0331   -1.5952 O   0  0  0  0  0  0  0  0  0  0  0  0
    1.6204    3.1349    0.2196 N   0  0  0  0  0  0  0  0  0  0  0  0
   -5.9849   -0.1916    0.6382 N   0  0  0  0  0  0  0  0  0  0  0  0
    1.5839    0.7245   -0.3050 C   0  0  0  0  0  0  0  0  0  0  0  0
    2.2240    1.8396    0.5310 C   0  0  0  0  0  0  0  0  0  0  0  0
    2.1981   -0.6228    0.0055 C   0  0  0  0  0  0  0  0  0  0  0  0
    3.2968   -1.0485   -0.7210 C   0  0  0  0  0  0  0  0  0  0  0  0
    1.6486   -1.4011    1.0099 C   0  0  0  0  0  0  0  0  0  0  0  0
    1.8305    3.4713   -1.1879 C   0  0  0  0  0  0  0  0  0  0  0  0
    2.1744    4.1775    1.0827 C   0  0  0  0  0  0  0  0  0  0  0  0
   -0.5063   -0.2762   -0.7578 C   0  0  0  0  0  0  0  0  0  0  0  0
    3.8633   -2.2906   -0.4347 C   0  0  0  0  0  0  0  0  0  0  0  0
    2.2151   -2.6432    1.2963 C   0  0  0  0  0  0  0  0  0  0  0  0
   -1.9448   -0.2541   -0.3907 C   0  0  0  0  0  0  0  0  0  0  0  0
    3.3225   -3.0879    0.5740 C   0  0  0  0  0  0  0  0  0  0  0  0
   -2.6749   -1.4211   -0.4845 C   0  0  0  0  0  0  0  0  0  0  0  0
   -2.5069    0.9330    0.0324 C   0  0  0  0  0  0  0  0  0  0  0  0
   -4.0265   -1.4001   -0.1404 C   0  0  0  0  0  0  0  0  0  0  0  0
   -3.8586    0.9540    0.3766 C   0  0  0  0  0  0  0  0  0  0  0  0
   -4.6185   -0.2127    0.2902 C   0  0  0  0  0  0  0  0  0  0  0  0
  1  5  1  0
  1 12  1  0
  2 12  2  0
  3  6  1  0
  3 10  1  0
  3 11  1  0
  4 21  1  0
  5  6  1  0
  5  7  1  0
  7  8  2  0
  7  9  1  0
  8 13  1  0
  9 14  2  0
 12 15  1  0
 13 16  2  0
 14 16  1  0
 15 17  2  0
 15 18  1  0
 17 19  1  0
 18 20  2  0
 19 21  2  0
 20 21  1  0
M  END
>  <PUBCHEM_COMPOUND_CID>  (1) 
48908

>  <PUBCHEM_CONFORMER_RMSD>  (1) 
0.8

>  <PUBCHEM_CONFORMER_DIVERSEORDER>  (1) 
1
19
17
16
12
30
29
4
21
6
24
7
13
2
5
23
27
22
8
9
28
18
26
14
10
25
3
20
11
15

>  <PUBCHEM_MMFF94_PARTIAL_CHARGES>  (1) 
32
1 -0.43
10 0.27
11 0.27
12 0.63
13 -0.15
14 -0.15
15 0.09
16 -0.15
17 -0.15
18 -0.15
19 -0.15
2 -0.57
20 -0.15
21 0.1
25 0.15
26 0.15
3 -0.81
33 0.15
34 0.15
35 0.15
36 0.15
37 0.15
38 0.15
39 0.15
4 -0.9
40 0.4
41 0.4
5 0.42
6 0.27
7 -0.14
8 -0.15
9 -0.15

>  <PUBCHEM_EFFECTIVE_ROTOR_COUNT>  (1) 
6

>  <PUBCHEM_PHARMACOPHORE_FEATURES>  (1) 
6
1 2 acceptor
1 3 cation
1 4 cation
1 4 donor
6 15 17 18 19 20 21 rings
6 7 8 9 13 14 16 rings

>  <PUBCHEM_HEAVY_ATOM_COUNT>  (1) 
21

>  <PUBCHEM_ATOM_DEF_STEREO_COUNT>  (1) 
0

>  <PUBCHEM_ATOM_UDEF_STEREO_COUNT>  (1) 
1

>  <PUBCHEM_BOND_DEF_STEREO_COUNT>  (1) 
0

>  <PUBCHEM_BOND_UDEF_STEREO_COUNT>  (1) 
0

>  <PUBCHEM_ISOTOPIC_ATOM_COUNT>  (1) 
0

>  <PUBCHEM_COMPONENT_COUNT>  (1) 
1

>  <PUBCHEM_CACTVS_TAUTO_COUNT>  (1) 
2

>  <PUBCHEM_CONFORMER_ID>  (1) 
0000BF0C00000001

>  <PUBCHEM_MMFF94_ENERGY>  (1) 
75.9679

>  <PUBCHEM_FEATURE_SELFOVERLAP>  (1) 
30.446

>  <PUBCHEM_SHAPE_FINGERPRINT>  (1) 
10090160 65 17832411378301623455
10366900 7 17894921710948909843
11578080 2 17750218253850397420
12107183 9 18125165940164969265
12160290 23 17259314702214483124
12403259 226 18335416816865317429
12553582 1 18265884774897594678
12788726 201 17543898019439187426
13052359 8 17327450325180527660
13140716 1 18122334955084003144
13533116 47 18335986450077897403
13583140 156 18261944190117153543
13878862 14 18337090325503593405
13955234 65 18339364179208958745
14178342 30 17902227046444773751
14341114 176 18341900666861829435
14787075 74 18260270737872998222
14866123 147 16753808664582093955
14950920 106 18122659169807544891
14955137 171 18272376364973436830
15042514 8 17834677093582474562
15375462 189 18115869607342644866
15664445 248 18200610107315555998
15842332 3 17773016756501506111
17492 89 18339642347478251463
17804303 29 18335986350940150447
17868525 174 18337387124438273489
1813 80 18198632042467498278
18785283 64 18188489215431751288
19078846 21 18267870479843014437
20369508 70 18408601439948558703
20600515 1 17915464895855001768
20671657 1 18341334495255635684
20832881 197 18115869599026750811
21033648 29 16772094844527208907
21049683 271 18261122872105890252
21065198 57 18409731772889157883
21344244 78 18271792511097727425
21524375 3 17982169229807535148
2255824 54 18336266833557700710
22950370 63 18265902349998773854
23366157 5 18262235628774483828
23558518 356 17690555708201263262
23559900 14 18412538825795444675
23566358 27 18337112387916772463
3091708 16 9502827773820936704
31174 14 18335414673249030997
312423 11 18200872989231103519
314173 41 18338522945381907734
3421961 26 18410008819211241610
345986 75 17681826311267512746
394222 165 18128253591531532384
4409770 3 17469034467227077348
465052 167 18411989022769084655
474 4 18045217395418312421
5104073 3 18342187695853642707
6049 1 17967800635804011941
633830 44 17982452890643115956
6442390 28 17760656162524618560
7097593 13 18411693275314901175
7364860 26 18340767134692489724
7615 1 17702364312654149343
81228 2 17619888584108488600
84936 182 18127130994444497440
9709674 26 18335421326502045259
9841814 1 18334003978514124074
9981440 41 17834668675235903448

>  <PUBCHEM_SHAPE_MULTIPOLES>  (1) 
410.47
8.82
4.26
1.1
12.79
4.42
0.04
-3.94
-1.27
-6.46
-0.91
-0.51
0.05
-0.32

>  <PUBCHEM_SHAPE_SELFOVERLAP>  (1) 
870.392

>  <PUBCHEM_SHAPE_VOLUME>  (1) 
230

>  <PUBCHEM_COORDINATE_TYPE>  (1) 
2
5
10

$$$$
