48920
     RDKit          3D

 21 22  0  0  1  0  0  0  0  0999 V2000
    0.1663   -2.2033    0.4676 O   0  0  0  0  0  0  0  0  0  0  0  0
    0.0944   -1.3893   -1.6845 O   0  0  0  0  0  0  0  0  0  0  0  0
    2.9216   -0.2469   -0.3052 N   0  0  0  0  0  0  0  0  0  0  0  0
    2.4985   -0.5804    1.0494 C   0  0  0  0  0  0  0  0  0  0  0  0
    2.4353   -2.0941    1.2267 C   0  0  0  0  0  0  0  0  0  0  0  0
    2.8951    1.2023   -0.5118 C   0  0  0  0  0  0  0  0  0  0  0  0
    1.4655   -2.7321    0.2414 C   0  0  0  0  0  0  0  0  0  0  0  0
    1.5307    1.7815   -0.2477 C   0  0  0  0  0  0  0  0  0  0  0  0
    4.2620   -0.7728   -0.5709 C   0  0  0  0  0  0  0  0  0  0  0  0
    0.6146    1.8734   -1.2864 C   0  0  0  0  0  0  0  0  0  0  0  0
    1.2080    2.2152    1.0306 C   0  0  0  0  0  0  0  0  0  0  0  0
   -0.6495    2.4099   -1.0419 C   0  0  0  0  0  0  0  0  0  0  0  0
   -0.0563    2.7515    1.2751 C   0  0  0  0  0  0  0  0  0  0  0  0
   -0.9849    2.8488    0.2388 C   0  0  0  0  0  0  0  0  0  0  0  0
   -0.4069   -1.5530   -0.5829 C   0  0  0  0  0  0  0  0  0  0  0  0
   -1.7552   -1.0492   -0.2188 C   0  0  0  0  0  0  0  0  0  0  0  0
   -2.7153   -0.9416   -1.2041 C   0  0  0  0  0  0  0  0  0  0  0  0
   -2.0067   -0.7049    1.0936 C   0  0  0  0  0  0  0  0  0  0  0  0
   -3.9823   -0.4687   -0.8621 C   0  0  0  0  0  0  0  0  0  0  0  0
   -3.2736   -0.2321    1.4355 C   0  0  0  0  0  0  0  0  0  0  0  0
   -4.2614   -0.1140    0.4576 C   0  0  0  0  0  0  0  0  0  0  0  0
  1  7  1  0
  1 15  1  0
  2 15  2  0
  3  4  1  0
  3  6  1  0
  3  9  1  0
  4  5  1  0
  5  7  1  0
  6  8  1  0
  8 10  2  0
  8 11  1  0
 10 12  1  0
 11 13  2  0
 12 14  2  0
 13 14  1  0
 15 16  1  0
 16 17  2  0
 16 18  1  0
 17 19  1  0
 18 20  2  0
 19 21  2  0
 20 21  1  0
M  END
>  <PUBCHEM_COMPOUND_CID>  (1) 
48920

>  <PUBCHEM_CONFORMER_RMSD>  (1) 
0.8

>  <PUBCHEM_CONFORMER_DIVERSEORDER>  (1) 
21
79
3
245
313
382
106
212
126
251
458
272
488
299
115
136
336
384
147
278
37
45
273
380
174
26
197
287
328
35
441
297
485
252
224
378
279
191
164
435
210
353
310
417
111
169
478
280
200
423
172
263
459
438
346
213
140
468
211
352
483
342
444
60
202
63
242
325
430
19
394
222
28
255
317
143
292
181
333
340
397
434
241
482
311
244
152
179
335
50
154
321
424
208
406
462
184
372
156
49
331
316
470
48
209
88
176
357
193
38
347
151
234
138
230
256
112
262
264
448
282
217
295
320
5
108
163
393
219
385
68
408
449
237
319
110
305
155
250
76
158
373
285
192
276
198
254
134
160
31
399
1
73
220
150
284
105
274
487
122
466
168
476
129
218
469
253
277
125
489
235
381
364
401
338
167
379
477
43
227
229
268
427
361
119
472
132
407
32
173
61
238
226
161
420
418
392
421
289
386
467
400
14
9
359
460
225
205
107
130
131
341
248
387
334
329
465
95
396
391
102
103
367
243
312
298
23
27
314
452
471
65
304
223
343
94
84
195
322
414
83
415
33
232
350
93
10
236
67
302
78
355
390
99
199
362
301
137
101
141
451
2
96
145
445
117
375
100
261
186
349
309
41
426
139
153
486
463
70
171
54
178
315
42
405
149
440
370
72
203
419
422
86
82
56
231
339
403
330
47
308
240
135
216
337
326
4
303
377
429
275
221
109
416
46
269
189
360
351
447
44
258
114
98
142
454
59
22
455
39
332
187
247
146
383
40
183
388
306
473
481
228
120
194
288
69
162
30
296
410
18
439
29
148
395
90
366
118
182
293
404
89
124
480
87
201
80
286
206
188
165
374
265
75
257
475
474
81
389
239
71
365
6
323
128
267
259
464
411
354
413
409
283
453
425
116
215
442
457
446
412
266
214
127
358
58
170
185
271
376
260
8
92
450
77
53
402
327
270
20
318
437
157
16
307
484
144
290
345
133
25
177
34
85
121
233
97
104
57
190
13
432
281
294
356
443
249
7
24
300
324
246
456
91
180
12
436
204
431
291
74
490
433
363
428
166
196
15
207
398
62
36
348
369
175
461
52
123
344
51
55
368
479
11
64
17
66
113
371
159

>  <PUBCHEM_MMFF94_PARTIAL_CHARGES>  (1) 
30
1 -0.43
10 -0.15
11 -0.15
12 -0.15
13 -0.15
14 -0.15
15 0.63
16 0.09
17 -0.15
18 -0.15
19 -0.15
2 -0.57
20 -0.15
21 -0.15
3 -0.81
33 0.15
34 0.15
35 0.15
36 0.15
37 0.15
38 0.15
39 0.15
4 0.27
40 0.15
41 0.15
42 0.15
6 0.41
7 0.28
8 -0.14
9 0.27

>  <PUBCHEM_EFFECTIVE_ROTOR_COUNT>  (1) 
8

>  <PUBCHEM_PHARMACOPHORE_FEATURES>  (1) 
4
1 2 acceptor
1 3 cation
6 16 17 18 19 20 21 rings
6 8 10 11 12 13 14 rings

>  <PUBCHEM_HEAVY_ATOM_COUNT>  (1) 
21

>  <PUBCHEM_ATOM_DEF_STEREO_COUNT>  (1) 
0

>  <PUBCHEM_ATOM_UDEF_STEREO_COUNT>  (1) 
0

>  <PUBCHEM_BOND_DEF_STEREO_COUNT>  (1) 
0

>  <PUBCHEM_BOND_UDEF_STEREO_COUNT>  (1) 
0

>  <PUBCHEM_ISOTOPIC_ATOM_COUNT>  (1) 
0

>  <PUBCHEM_COMPONENT_COUNT>  (1) 
1

>  <PUBCHEM_CACTVS_TAUTO_COUNT>  (1) 
1

>  <PUBCHEM_CONFORMER_ID>  (1) 
0000BF1800000015

>  <PUBCHEM_MMFF94_ENERGY>  (1) 
57.0474

>  <PUBCHEM_FEATURE_SELFOVERLAP>  (1) 
20.297

>  <PUBCHEM_SHAPE_FINGERPRINT>  (1) 
104564 63 18339365145434265920
11086676 242 18409728452394180536
11578080 2 17557384822513544825
12011746 2 18335703810421088935
12422481 6 17907602237272376153
12553582 1 18410570678084746706
12596599 1 17988649635129480262
128993 33 17248368423614317101
13140716 1 18263921219234748170
14178342 30 17619902198574652888
16752209 62 18410575041977410196
16945 1 18334571347883416906
17357779 13 18338791217496697213
18219364 16 18116432733531786283
192875 21 17703787076521769621
20905425 154 18339924788352358525
23184049 59 18340771536928356133
23419403 2 17831534822299423124
238 59 17757540129486727151
2818148 4 17763489230501640854
35225 105 16816586419309812891
5939293 188 18342174526507985840
7832392 63 18127972116702748262
81228 2 17688598160781380115

>  <PUBCHEM_SHAPE_MULTIPOLES>  (1) 
415.45
6.17
3.44
1.45
1.97
1.38
-0.02
-2.28
0
-1.3
-0.4
0.31
0.09
-0.46

>  <PUBCHEM_SHAPE_SELFOVERLAP>  (1) 
871.56

>  <PUBCHEM_SHAPE_VOLUME>  (1) 
234.7

>  <PUBCHEM_COORDINATE_TYPE>  (1) 
2
5
10

$$$$
