48922
     RDKit          3D

 18 18  0  0  0  0  0  0  0  0999 V2000
   -3.4001    0.0106   -1.0029 I   0  0  0  0  0  0  0  0  0  0  0  0
    1.8140    3.0479   -0.0753 I   0  0  0  0  0  0  0  0  0  0  0  0
    1.7942   -3.0596   -0.0746 I   0  0  0  0  0  0  0  0  0  0  0  0
    3.1676   -0.0090    1.4456 O   0  0  0  0  0  0  0  0  0  0  0  0
    3.7571   -0.0121   -0.7496 O   0  0  0  0  0  0  0  0  0  0  0  0
   -2.0073   -2.9240    1.5746 O   0  0  0  0  0  0  0  0  0  0  0  0
   -1.9880    2.9368    1.5748 O   0  0  0  0  0  0  0  0  0  0  0  0
   -1.3140   -2.4183   -0.6294 N   0  0  0  0  0  0  0  0  0  0  0  0
   -1.2988    2.4265   -0.6295 N   0  0  0  0  0  0  0  0  0  0  0  0
   -0.6196   -1.2061   -0.5062 C   0  0  0  0  0  0  0  0  0  0  0  0
   -0.6120    1.2100   -0.5064 C   0  0  0  0  0  0  0  0  0  0  0  0
    1.4440   -0.0047   -0.1390 C   0  0  0  0  0  0  0  0  0  0  0  0
   -1.3025    0.0041   -0.6287 C   0  0  0  0  0  0  0  0  0  0  0  0
    0.7613    1.2055   -0.2615 C   0  0  0  0  0  0  0  0  0  0  0  0
    0.7536   -1.2105   -0.2612 C   0  0  0  0  0  0  0  0  0  0  0  0
    2.8850   -0.0094    0.1176 C   0  0  0  0  0  0  0  0  0  0  0  0
   -1.9273   -3.1516    0.3757 C   0  0  0  0  0  0  0  0  0  0  0  0
   -1.9071    3.1638    0.3758 C   0  0  0  0  0  0  0  0  0  0  0  0
  1 13  1  0
  2 14  1  0
  3 15  1  0
  4 16  1  0
  5 16  2  0
  6 17  2  0
  7 18  2  0
  8 10  1  0
  8 17  1  0
  9 11  1  0
  9 18  1  0
 10 13  2  0
 10 15  1  0
 11 13  1  0
 11 14  2  0
 12 14  1  0
 12 15  2  0
 12 16  1  0
M  END
>  <PUBCHEM_COMPOUND_CID>  (1) 
48922

>  <PUBCHEM_CONFORMER_RMSD>  (1) 
0.6

>  <PUBCHEM_CONFORMER_DIVERSEORDER>  (1) 
1
4
2
3

>  <PUBCHEM_MMFF94_PARTIAL_CHARGES>  (1) 
23
1 -0.08
10 0.12
11 0.12
12 0.09
13 0.08
14 0.08
15 0.08
16 0.63
17 0.57
18 0.57
19 0.37
2 -0.08
20 0.37
21 0.06
22 0.06
23 0.5
3 -0.08
4 -0.65
5 -0.57
6 -0.57
7 -0.57
8 -0.55
9 -0.55

>  <PUBCHEM_EFFECTIVE_ROTOR_COUNT>  (1) 
5

>  <PUBCHEM_PHARMACOPHORE_FEATURES>  (1) 
11
1 1 hydrophobe
1 2 hydrophobe
1 3 hydrophobe
1 4 acceptor
1 5 acceptor
1 6 acceptor
1 7 acceptor
1 8 donor
1 9 donor
3 4 5 16 anion
6 10 11 12 13 14 15 rings

>  <PUBCHEM_HEAVY_ATOM_COUNT>  (1) 
18

>  <PUBCHEM_ATOM_DEF_STEREO_COUNT>  (1) 
0

>  <PUBCHEM_ATOM_UDEF_STEREO_COUNT>  (1) 
0

>  <PUBCHEM_BOND_DEF_STEREO_COUNT>  (1) 
0

>  <PUBCHEM_BOND_UDEF_STEREO_COUNT>  (1) 
0

>  <PUBCHEM_ISOTOPIC_ATOM_COUNT>  (1) 
0

>  <PUBCHEM_COMPONENT_COUNT>  (1) 
1

>  <PUBCHEM_CACTVS_TAUTO_COUNT>  (1) 
3

>  <PUBCHEM_CONFORMER_ID>  (1) 
0000BF1A00000001

>  <PUBCHEM_MMFF94_ENERGY>  (1) 
103.7773

>  <PUBCHEM_FEATURE_SELFOVERLAP>  (1) 
55.879

>  <PUBCHEM_SHAPE_FINGERPRINT>  (1) 
10967382 1 18410565176205214894
11680986 33 18193830664067380028
13140716 1 18266170823818640656
14178342 30 18053648188476401961
14790565 3 17109893782209030245
15490181 8 18338797819030236212
16945 1 18410568487677708566
19591789 44 17907021673029767047
20510252 161 18272357659805572953
21041028 32 18122918782461785739
21501502 16 18125435302648135126
21524375 3 17839170818906107909
2334 1 17905600352197304750
23419403 2 14442791744653198442
23558518 356 18195241118532090351
23559900 14 18340199787409904308
2748010 2 18049431836240091462
350125 39 18124312696970626415
352729 6 18338229465865538286
7364860 26 17187569884384139598
81228 2 18411128130448412940

>  <PUBCHEM_SHAPE_MULTIPOLES>  (1) 
372.8
4.86
4.82
1.13
0.02
0.79
0.35
-1.08
1.28
-0.02
-0.16
0
-0.4
0.01

>  <PUBCHEM_SHAPE_SELFOVERLAP>  (1) 
717.795

>  <PUBCHEM_SHAPE_VOLUME>  (1) 
234

>  <PUBCHEM_COORDINATE_TYPE>  (1) 
2
5
10

$$$$
