48939
     RDKit          3D

 21 21  0  0  0  0  0  0  0  0999 V2000
    3.0665   -1.8645    1.2002 S   0  0  0  0  0  0  0  0  0  0  0  0
   -0.9077    0.6209   -0.9808 O   0  0  0  0  0  0  0  0  0  0  0  0
   -0.6373    2.9031   -0.8473 O   0  0  0  0  0  0  0  0  0  0  0  0
   -3.9021   -0.7076    0.1780 N   0  0  0  0  0  0  0  0  0  0  0  0
   -2.9579   -1.3923   -0.6966 C   0  0  0  0  0  0  0  0  0  0  0  0
   -2.7294   -0.5808   -1.9677 C   0  0  0  0  0  0  0  0  0  0  0  0
   -5.2735   -0.8870   -0.3021 C   0  0  0  0  0  0  0  0  0  0  0  0
   -3.7781   -1.1949    1.5530 C   0  0  0  0  0  0  0  0  0  0  0  0
   -2.1455    0.7908   -1.6575 C   0  0  0  0  0  0  0  0  0  0  0  0
   -6.2622   -0.1235    0.5627 C   0  0  0  0  0  0  0  0  0  0  0  0
   -2.3613   -1.0183    2.0724 C   0  0  0  0  0  0  0  0  0  0  0  0
   -0.2544    1.7637   -0.6313 C   0  0  0  0  0  0  0  0  0  0  0  0
    1.0195    1.4510    0.0642 C   0  0  0  0  0  0  0  0  0  0  0  0
    1.3922    0.1236    0.2762 C   0  0  0  0  0  0  0  0  0  0  0  0
    2.5893   -0.1688    0.9297 C   0  0  0  0  0  0  0  0  0  0  0  0
    4.6443   -1.9509    0.3070 C   0  0  0  0  0  0  0  0  0  0  0  0
    4.4418   -1.6226   -1.1680 C   0  0  0  0  0  0  0  0  0  0  0  0
    1.8438    2.4859    0.5060 C   0  0  0  0  0  0  0  0  0  0  0  0
    3.4135    0.8661    1.3715 C   0  0  0  0  0  0  0  0  0  0  0  0
    3.0409    2.1935    1.1598 C   0  0  0  0  0  0  0  0  0  0  0  0
    5.7577   -1.6873   -1.9293 C   0  0  0  0  0  0  0  0  0  0  0  0
  1 15  1  0
  1 16  1  0
  2  9  1  0
  2 12  1  0
  3 12  2  0
  4  5  1  0
  4  7  1  0
  4  8  1  0
  5  6  1  0
  6  9  1  0
  7 10  1  0
  8 11  1  0
 12 13  1  0
 13 14  2  0
 13 18  1  0
 14 15  1  0
 15 19  2  0
 16 17  1  0
 17 21  1  0
 18 20  2  0
 19 20  1  0
M  END
>  <PUBCHEM_COMPOUND_CID>  (1) 
48939

>  <PUBCHEM_CONFORMER_RMSD>  (1) 
1.2

>  <PUBCHEM_CONFORMER_DIVERSEORDER>  (1) 
12
25
76
50
61
29
51
41
60
54
14
46
92
72
44
78
52
16
8
36
35
87
64
69
37
6
74
27
80
2
88
57
49
15
45
63
24
20
66
82
55
75
73
22
62
85
67
17
59
30
68
70
48
26
39
65
21
86
90
84
18
91
1
23
19
10
43
34
83
31
38
56
58
42
89
79
53
7
71
81
33
3
11
40
77
32
47
28
5
9
13
4

>  <PUBCHEM_MMFF94_PARTIAL_CHARGES>  (1) 
20
1 -0.33
12 0.63
13 0.09
14 -0.15
15 0.1
16 0.23
18 -0.15
19 -0.15
2 -0.43
20 -0.15
3 -0.57
38 0.15
4 -0.81
43 0.15
44 0.15
45 0.15
5 0.27
7 0.27
8 0.27
9 0.28

>  <PUBCHEM_EFFECTIVE_ROTOR_COUNT>  (1) 
11

>  <PUBCHEM_PHARMACOPHORE_FEATURES>  (1) 
4
1 21 hydrophobe
1 3 acceptor
1 4 cation
6 13 14 15 18 19 20 rings

>  <PUBCHEM_HEAVY_ATOM_COUNT>  (1) 
21

>  <PUBCHEM_ATOM_DEF_STEREO_COUNT>  (1) 
0

>  <PUBCHEM_ATOM_UDEF_STEREO_COUNT>  (1) 
0

>  <PUBCHEM_BOND_DEF_STEREO_COUNT>  (1) 
0

>  <PUBCHEM_BOND_UDEF_STEREO_COUNT>  (1) 
0

>  <PUBCHEM_ISOTOPIC_ATOM_COUNT>  (1) 
0

>  <PUBCHEM_COMPONENT_COUNT>  (1) 
1

>  <PUBCHEM_CACTVS_TAUTO_COUNT>  (1) 
1

>  <PUBCHEM_CONFORMER_ID>  (1) 
0000BF2B0000000C

>  <PUBCHEM_MMFF94_ENERGY>  (1) 
38.6706

>  <PUBCHEM_FEATURE_SELFOVERLAP>  (1) 
20.297

>  <PUBCHEM_SHAPE_FINGERPRINT>  (1) 
10692045 39 18059305292593393515
10764073 3 14185674000272363532
11595378 159 15482664714934621426
12553582 1 18340474582984911206
12596599 1 18060125570479260078
12596602 18 17273127131948481145
12633257 1 17346880048299279726
13402501 40 17967248702378791123
13533116 47 18059288889775582515
13726171 33 15502658161554881023
14251757 5 17458350701981860483
14251758 9 18059571343925559749
14251764 30 18058740087529246534
14386348 63 17749941258666467929
14617045 38 17822011999652556139
14739800 52 15697140998014944058
14932701 244 13191782773156172256
15475509 84 17846215527445105953
15527383 91 18060140933592400454
15635459 17 18041828605896703515
173720 79 15626221325834903581
1813 80 17916880032197977494
20603629 256 18059001899860293600
20645477 70 18197186291919013892
20693207 138 18040984133864394948
20871999 31 17240769440977344782
21591331 117 18271539606486081742
23016692 55 18335708212662496510
23559900 14 17603590771883132975
329604 57 17967818211137532978

>  <PUBCHEM_SHAPE_MULTIPOLES>  (1) 
419.3
12.37
2.73
1.94
5.77
1.45
0.18
-8.4
0.69
-2.95
0.07
-0.07
-0.56
1.89

>  <PUBCHEM_SHAPE_SELFOVERLAP>  (1) 
816.435

>  <PUBCHEM_SHAPE_VOLUME>  (1) 
255.3

>  <PUBCHEM_COORDINATE_TYPE>  (1) 
2
5
10

$$$$
