4893
     RDKit          3D

 28 31  0  0  0  0  0  0  0  0999 V2000
   -5.7145   -1.1446   -1.6280 O   0  0  0  0  0  0  0  0  0  0  0  0
   -5.4960    0.7234    1.3047 O   0  0  0  0  0  0  0  0  0  0  0  0
    5.4926    2.4845   -0.3391 O   0  0  0  0  0  0  0  0  0  0  0  0
    6.7137    0.0747    0.3114 O   0  0  0  0  0  0  0  0  0  0  0  0
   -0.8973   -0.6704   -0.2587 N   0  0  0  0  0  0  0  0  0  0  0  0
   -3.7743   -0.4868   -0.5557 N   0  0  0  0  0  0  0  0  0  0  0  0
    1.2238    0.3745   -0.2843 N   0  0  0  0  0  0  0  0  0  0  0  0
    1.0141   -1.9737    0.2143 N   0  0  0  0  0  0  0  0  0  0  0  0
    2.9165   -3.2756    0.6856 N   0  0  0  0  0  0  0  0  0  0  0  0
   -1.5367    0.6027   -0.6016 C   0  0  0  0  0  0  0  0  0  0  0  0
   -1.7513   -1.8496   -0.0924 C   0  0  0  0  0  0  0  0  0  0  0  0
   -2.9722    0.6448   -0.0769 C   0  0  0  0  0  0  0  0  0  0  0  0
   -3.0375   -1.7002   -0.9019 C   0  0  0  0  0  0  0  0  0  0  0  0
    0.4838   -0.7610   -0.1052 C   0  0  0  0  0  0  0  0  0  0  0  0
   -5.1659   -0.4483   -0.7712 C   0  0  0  0  0  0  0  0  0  0  0  0
    2.5581    0.2945   -0.1380 C   0  0  0  0  0  0  0  0  0  0  0  0
   -5.9521    0.4630    0.0573 C   0  0  0  0  0  0  0  0  0  0  0  0
    3.1882   -0.9170    0.1904 C   0  0  0  0  0  0  0  0  0  0  0  0
    2.3526   -2.0186    0.3533 C   0  0  0  0  0  0  0  0  0  0  0  0
    3.3614    1.4193   -0.3092 C   0  0  0  0  0  0  0  0  0  0  0  0
    4.5840   -0.9888    0.3409 C   0  0  0  0  0  0  0  0  0  0  0  0
   -7.1157    1.1356   -0.1979 C   0  0  0  0  0  0  0  0  0  0  0  0
    4.7502    1.3562   -0.1612 C   0  0  0  0  0  0  0  0  0  0  0  0
    5.3625    0.1509    0.1640 C   0  0  0  0  0  0  0  0  0  0  0  0
   -7.4029    1.8677    0.9787 C   0  0  0  0  0  0  0  0  0  0  0  0
   -6.3882    1.5834    1.8627 C   0  0  0  0  0  0  0  0  0  0  0  0
    5.9646    2.7483   -1.6588 C   0  0  0  0  0  0  0  0  0  0  0  0
    7.2386    0.3112    1.6168 C   0  0  0  0  0  0  0  0  0  0  0  0
  1 15  2  0
  2 17  1  0
  2 26  1  0
  3 23  1  0
  3 27  1  0
  4 24  1  0
  4 28  1  0
  5 10  1  0
  5 11  1  0
  5 14  1  0
  6 12  1  0
  6 13  1  0
  6 15  1  0
  7 14  2  0
  7 16  1  0
  8 14  1  0
  8 19  2  0
  9 19  1  0
 10 12  1  0
 11 13  1  0
 15 17  1  0
 16 18  2  0
 16 20  1  0
 17 22  2  0
 18 19  1  0
 18 21  1  0
 20 23  2  0
 21 24  2  0
 22 25  1  0
 23 24  1  0
 25 26  2  0
M  END
>  <PUBCHEM_COMPOUND_CID>  (1) 
4893

>  <PUBCHEM_CONFORMER_RMSD>  (1) 
0.8

>  <PUBCHEM_CONFORMER_DIVERSEORDER>  (1) 
1
24
18
17
36
14
29
34
8
22
3
13
33
30
19
21
25
23
11
15
7
28
5
12
31
20
32
6
27
16
26
9
10
4
35
2

>  <PUBCHEM_MMFF94_PARTIAL_CHARGES>  (1) 
34
1 -0.57
10 0.37
11 0.37
12 0.3
13 0.3
14 0.72
15 0.71
16 0.31
17 0.05
19 0.41
2 -0.28
20 -0.15
21 -0.15
22 -0.15
23 0.08
24 0.08
25 -0.15
26 -0.01
27 0.28
28 0.28
3 -0.36
37 0.15
38 0.15
39 0.15
4 -0.36
40 0.4
41 0.4
42 0.15
43 0.15
5 -0.84
6 -0.66
7 -0.62
8 -0.62
9 -0.9

>  <PUBCHEM_EFFECTIVE_ROTOR_COUNT>  (1) 
6.2

>  <PUBCHEM_PHARMACOPHORE_FEATURES>  (1) 
10
1 1 acceptor
1 2 acceptor
1 3 acceptor
1 4 acceptor
1 9 donor
4 5 7 8 14 cation
5 2 17 22 25 26 rings
6 16 18 20 21 23 24 rings
6 5 6 10 11 12 13 rings
6 7 8 14 16 18 19 rings

>  <PUBCHEM_HEAVY_ATOM_COUNT>  (1) 
28

>  <PUBCHEM_ATOM_DEF_STEREO_COUNT>  (1) 
0

>  <PUBCHEM_ATOM_UDEF_STEREO_COUNT>  (1) 
0

>  <PUBCHEM_BOND_DEF_STEREO_COUNT>  (1) 
0

>  <PUBCHEM_BOND_UDEF_STEREO_COUNT>  (1) 
0

>  <PUBCHEM_ISOTOPIC_ATOM_COUNT>  (1) 
0

>  <PUBCHEM_COMPONENT_COUNT>  (1) 
1

>  <PUBCHEM_CACTVS_TAUTO_COUNT>  (1) 
3

>  <PUBCHEM_CONFORMER_ID>  (1) 
0000131D00000001

>  <PUBCHEM_MMFF94_ENERGY>  (1) 
109.7703

>  <PUBCHEM_FEATURE_SELFOVERLAP>  (1) 
50.783

>  <PUBCHEM_SHAPE_FINGERPRINT>  (1) 
10 15 17603308167261633133
10411042 1 17831295005229414090
10554248 39 18058721383019850271
10595046 47 18413385449959919783
10906281 52 18411429422504727111
11089746 13 17988638622838263625
11524674 6 16081372960314289097
12236239 1 18202842145388632319
12788726 201 17489312923898013225
13167372 99 18342458110318933145
13668630 136 12107785185987045400
13782708 43 12396293781330063213
13785724 45 17694223270448495639
14251764 18 18343582954555104669
15183329 4 17918280852629530145
15475509 35 15936964116618777506
15483637 11 17972592195656762212
1577012 14 18410576227494047892
15840311 113 18266186041895508029
2026 5 12180662982121311368
21033650 10 15267069108402691315
21130935 74 18272082795142798562
21150785 3 14189570841069098217
21298829 104 18341893008887752336
21781055 127 18342746209343282184
21792964 463 18191612798648732992
23081809 10 18272363183576406575
23522609 53 18271541844027334401
23569914 152 11955835827625240793
24771293 8 18270108141447969704
255183 451 17983863281543699222
3178227 256 17894908521779317394
328310 630 18410575102529056085
335352 9 18334573569510397166
394071 54 18186523197977307581
397830 11 16298961977386480289
4073 2 18187088398931870699
4093350 32 17703509905150113430
4340502 62 16950564367844125866
44555599 121 18411984684393218629
44880568 143 14620790475778603875
5104073 3 18187358891386834554
5385378 56 18337387154692981362
5718773 13 10303549272859763092
5758199 1 18411979165728910978
59682541 52 16845025528412678612
6328613 192 18272090504787800001
636775 72 17918267671095610721

>  <PUBCHEM_SHAPE_MULTIPOLES>  (1) 
527.84
21.81
2.55
1.21
12.02
0.34
0.16
-13.16
4.36
-2.19
-0.17
0.56
-0.42
-3.34

>  <PUBCHEM_SHAPE_SELFOVERLAP>  (1) 
1149.651

>  <PUBCHEM_SHAPE_VOLUME>  (1) 
286.9

>  <PUBCHEM_COORDINATE_TYPE>  (1) 
2
5
10

$$$$
