48935
     RDKit          3D

 21 22  0  0  1  0  0  0  0  0999 V2000
    0.8021   -1.4729    0.2897 O   0  0  0  0  0  0  0  0  0  0  0  0
    1.6695   -1.9652   -1.7850 O   0  0  0  0  0  0  0  0  0  0  0  0
   -2.4765   -0.3144    0.4172 N   0  0  0  0  0  0  0  0  0  0  0  0
   -2.9131    1.0835    0.6384 C   0  0  0  0  0  0  0  0  0  0  0  0
   -3.6924    1.6012   -0.5875 C   0  0  0  0  0  0  0  0  0  0  0  0
   -3.6264   -1.1940    0.1421 C   0  0  0  0  0  0  0  0  0  0  0  0
   -4.8734    0.7031   -0.9317 C   0  0  0  0  0  0  0  0  0  0  0  0
   -4.4095   -0.7368   -1.0864 C   0  0  0  0  0  0  0  0  0  0  0  0
   -1.7376    2.0373    0.8949 C   0  0  0  0  0  0  0  0  0  0  0  0
   -1.7202   -0.8530    1.5514 C   0  0  0  0  0  0  0  0  0  0  0  0
   -0.8290    2.1218   -0.3230 C   0  0  0  0  0  0  0  0  0  0  0  0
   -1.2445   -2.2696    1.2458 C   0  0  0  0  0  0  0  0  0  0  0  0
    0.3481    3.0474   -0.0603 C   0  0  0  0  0  0  0  0  0  0  0  0
   -0.3241   -2.3005    0.0331 C   0  0  0  0  0  0  0  0  0  0  0  0
    1.7266   -1.3938   -0.7073 C   0  0  0  0  0  0  0  0  0  0  0  0
    2.8487   -0.5037   -0.3159 C   0  0  0  0  0  0  0  0  0  0  0  0
    3.5195    0.1950   -1.2988 C   0  0  0  0  0  0  0  0  0  0  0  0
    3.1856   -0.4023    1.0183 C   0  0  0  0  0  0  0  0  0  0  0  0
    4.5735    1.0314   -0.9313 C   0  0  0  0  0  0  0  0  0  0  0  0
    4.2395    0.4343    1.3857 C   0  0  0  0  0  0  0  0  0  0  0  0
    4.9335    1.1512    0.4108 C   0  0  0  0  0  0  0  0  0  0  0  0
  1 14  1  0
  1 15  1  0
  2 15  2  0
  3  4  1  0
  3  6  1  0
  3 10  1  0
  4  5  1  0
  4  9  1  0
  5  7  1  0
  6  8  1  0
  7  8  1  0
  9 11  1  0
 10 12  1  0
 11 13  1  0
 12 14  1  0
 15 16  1  0
 16 17  2  0
 16 18  1  0
 17 19  1  0
 18 20  2  0
 19 21  2  0
 20 21  1  0
M  END
>  <PUBCHEM_COMPOUND_CID>  (1) 
48935

>  <PUBCHEM_CONFORMER_RMSD>  (1) 
1

>  <PUBCHEM_CONFORMER_DIVERSEORDER>  (1) 
13
858
14
65
626
819
7
28
753
301
454
35
548
197
609
118
565
143
881
538
12
751
204
238
281
72
460
199
188
247
868
564
75
791
556
218
567
114
137
195
654
147
5
782
185
210
792
22
577
437
673
417
783
412
642
687
44
192
481
97
221
126
537
641
59
66
244
770
110
312
47
395
714
532
3
49
707
265
293
729
930
94
193
758
314
158
58
8
41
357
74
624
904
154
351
250
672
229
469
100
78
4
433
465
870
608
9
82
496
521
834
553
552
346
76
735
10
95
98
235
142
73
446
403
42
514
482
181
490
299
24
79
139
159
643
365
211
267
917
679
190
104
366
172
472
251
151
893
410
179
1
471
26
226
504
587
165
604
46
169
345
859
500
17
102
632
339
310
25
29
209
874
827
2
202
32
64
634
646
308
198
191
196
290
6
86
168
831

>  <PUBCHEM_MMFF94_PARTIAL_CHARGES>  (1) 
19
1 -0.43
10 0.27
14 0.28
15 0.63
16 0.09
17 -0.15
18 -0.15
19 -0.15
2 -0.57
20 -0.15
21 -0.15
3 -0.81
4 0.27
44 0.15
45 0.15
46 0.15
47 0.15
48 0.15
6 0.27

>  <PUBCHEM_EFFECTIVE_ROTOR_COUNT>  (1) 
9.2

>  <PUBCHEM_PHARMACOPHORE_FEATURES>  (1) 
5
1 13 hydrophobe
1 2 acceptor
1 3 cation
6 16 17 18 19 20 21 rings
6 3 4 5 6 7 8 rings

>  <PUBCHEM_HEAVY_ATOM_COUNT>  (1) 
21

>  <PUBCHEM_ATOM_DEF_STEREO_COUNT>  (1) 
0

>  <PUBCHEM_ATOM_UDEF_STEREO_COUNT>  (1) 
1

>  <PUBCHEM_BOND_DEF_STEREO_COUNT>  (1) 
0

>  <PUBCHEM_BOND_UDEF_STEREO_COUNT>  (1) 
0

>  <PUBCHEM_ISOTOPIC_ATOM_COUNT>  (1) 
0

>  <PUBCHEM_COMPONENT_COUNT>  (1) 
1

>  <PUBCHEM_CACTVS_TAUTO_COUNT>  (1) 
1

>  <PUBCHEM_CONFORMER_ID>  (1) 
0000BF270000000D

>  <PUBCHEM_MMFF94_ENERGY>  (1) 
35.8805

>  <PUBCHEM_FEATURE_SELFOVERLAP>  (1) 
25.371

>  <PUBCHEM_SHAPE_FINGERPRINT>  (1) 
10366900 7 18202003222549054952
10498660 4 18410578361733681768
10670039 82 18335998497376721828
10759866 29 17967258611416494248
11112241 14 17273395369868238705
11578080 2 14332033411998389633
11759241 127 18202278087201481231
12011746 2 18412544331822270284
12166972 35 17676492752096487695
12403260 363 18194675978182342914
12553582 1 18337128807466397193
12596602 18 17023184980707542848
13224815 77 18343305838189600956
13402501 40 18342731953518943976
13544592 271 18408612456713661987
13583140 156 16154003437800459209
14251745 187 18341889671397353353
14251764 30 13110670709870357285
14251764 38 18339078160225309792
14790565 3 17620756081878131401
15375358 24 18408887325745808588
17357779 13 18201159939705352512
17492 54 18334576866826799565
192875 21 18114458976889328572
20511986 3 17459171015002658928
20715895 44 17606105205016440221
22749437 52 18260836959868604836
22950370 63 11887669615263673303
23402539 116 18339912783834623214
235170 7 16917069940578887061
23557571 272 18338535125782617046
23559900 14 18336834083079730134
328317 168 18408600353427178387
341906 21 18187368761395617014
351380 180 18411693275520499826
3524813 1 17988360468367145480
3680242 22 18187927210149589409
4028521 119 18412265029829927527
463206 1 17913760893830101015
526903 126 18337677386891204313
6328613 192 17968106322297288462
9981440 41 18259984872796569011

>  <PUBCHEM_SHAPE_MULTIPOLES>  (1) 
415.45
10.06
2.81
1.42
2.71
0.58
-0.03
2.56
-1.63
-0.92
0.1
0.41
-0.35
0.42

>  <PUBCHEM_SHAPE_SELFOVERLAP>  (1) 
844.823

>  <PUBCHEM_SHAPE_VOLUME>  (1) 
241

>  <PUBCHEM_COORDINATE_TYPE>  (1) 
2
5
10

$$$$
