48941
     RDKit          3D

 21 22  0  0  0  0  0  0  0  0999 V2000
    4.1687   -1.0515    1.3472 S   0  0  0  0  0  0  0  0  0  0  0  0
   -0.5223    0.0182   -0.4609 O   0  0  0  0  0  0  0  0  0  0  0  0
   -0.6874    2.2204   -1.1107 O   0  0  0  0  0  0  0  0  0  0  0  0
   -4.1752   -0.1384    0.0061 N   0  0  0  0  0  0  0  0  0  0  0  0
   -5.0457    0.2517    1.1242 C   0  0  0  0  0  0  0  0  0  0  0  0
   -4.4072   -1.5360   -0.3851 C   0  0  0  0  0  0  0  0  0  0  0  0
   -6.5217    0.0880    0.7578 C   0  0  0  0  0  0  0  0  0  0  0  0
   -5.8621   -1.7583   -0.8007 C   0  0  0  0  0  0  0  0  0  0  0  0
   -6.8252   -1.3349    0.3027 C   0  0  0  0  0  0  0  0  0  0  0  0
   -2.7700    0.0684    0.3554 C   0  0  0  0  0  0  0  0  0  0  0  0
   -1.8730   -0.2114   -0.8399 C   0  0  0  0  0  0  0  0  0  0  0  0
   -0.0545    1.2829   -0.6504 C   0  0  0  0  0  0  0  0  0  0  0  0
    1.3620    1.3904   -0.2186 C   0  0  0  0  0  0  0  0  0  0  0  0
    1.9927    0.2724    0.2874 C   0  0  0  0  0  0  0  0  0  0  0  0
    3.3241    0.3739    0.6905 C   0  0  0  0  0  0  0  0  0  0  0  0
    2.0044    2.6057   -0.3392 C   0  0  0  0  0  0  0  0  0  0  0  0
    5.5377   -1.2437    0.1710 C   0  0  0  0  0  0  0  0  0  0  0  0
    5.9391   -2.7098    0.0533 C   0  0  0  0  0  0  0  0  0  0  0  0
    3.9957    1.5913    0.5790 C   0  0  0  0  0  0  0  0  0  0  0  0
    3.3359    2.7072    0.0640 C   0  0  0  0  0  0  0  0  0  0  0  0
    7.0842   -2.8867   -0.9332 C   0  0  0  0  0  0  0  0  0  0  0  0
  1 15  1  0
  1 17  1  0
  2 11  1  0
  2 12  1  0
  3 12  2  0
  4  5  1  0
  4  6  1  0
  4 10  1  0
  5  7  1  0
  6  8  1  0
  7  9  1  0
  8  9  1  0
 10 11  1  0
 12 13  1  0
 13 14  2  0
 13 16  1  0
 14 15  1  0
 15 19  2  0
 16 20  2  0
 17 18  1  0
 18 21  1  0
 19 20  1  0
M  END
>  <PUBCHEM_COMPOUND_CID>  (1) 
48941

>  <PUBCHEM_CONFORMER_RMSD>  (1) 
1

>  <PUBCHEM_CONFORMER_DIVERSEORDER>  (1) 
3
462
19
342
456
41
276
629
78
621
89
460
10
23
556
637
288
495
606
11
626
263
236
269
255
282
484
318
501
432
1
127
604
494
623
35
205
349
351
4
132
489
77
20
546
42
37
316
46
363
612
130
308
624
202
299
250
72
69
558
465
71
24
25
118
144
161
59
2
271
84
350
198
58
633
595
515
376
137
13
209
12
415
492
143
524
426
554
79
8
339
173
99
17
509
142
581
34
319
40
567
85
335
45
461
93
594
551
120
614
274
83
133
245
206
244
38
119
183
605
332
306
483
114
386
476
225
125
229
53
407
294
446
50

>  <PUBCHEM_MMFF94_PARTIAL_CHARGES>  (1) 
20
1 -0.33
10 0.27
11 0.28
12 0.63
13 0.09
14 -0.15
15 0.1
16 -0.15
17 0.23
19 -0.15
2 -0.43
20 -0.15
3 -0.57
36 0.15
37 0.15
4 -0.81
42 0.15
43 0.15
5 0.27
6 0.27

>  <PUBCHEM_EFFECTIVE_ROTOR_COUNT>  (1) 
9.2

>  <PUBCHEM_PHARMACOPHORE_FEATURES>  (1) 
5
1 21 hydrophobe
1 3 acceptor
1 4 cation
6 13 14 15 16 19 20 rings
6 4 5 6 7 8 9 rings

>  <PUBCHEM_HEAVY_ATOM_COUNT>  (1) 
21

>  <PUBCHEM_ATOM_DEF_STEREO_COUNT>  (1) 
0

>  <PUBCHEM_ATOM_UDEF_STEREO_COUNT>  (1) 
0

>  <PUBCHEM_BOND_DEF_STEREO_COUNT>  (1) 
0

>  <PUBCHEM_BOND_UDEF_STEREO_COUNT>  (1) 
0

>  <PUBCHEM_ISOTOPIC_ATOM_COUNT>  (1) 
0

>  <PUBCHEM_COMPONENT_COUNT>  (1) 
1

>  <PUBCHEM_CACTVS_TAUTO_COUNT>  (1) 
1

>  <PUBCHEM_CONFORMER_ID>  (1) 
0000BF2D00000003

>  <PUBCHEM_MMFF94_ENERGY>  (1) 
35.2794

>  <PUBCHEM_FEATURE_SELFOVERLAP>  (1) 
25.371

>  <PUBCHEM_SHAPE_FINGERPRINT>  (1) 
10666366 153 18113896036359298607
10692045 39 16845298206906431310
11059845 2 17486506892371660024
11135609 127 8862674460156268707
11638347 137 18408891763649935643
11991303 11 16881867826407937157
12107183 9 18197505026175185529
12166972 35 18272652354786281040
12236239 1 18342738572353145025
12596602 18 18059572537783946227
12821665 9 8430300334844315865
13533116 47 18411980307926597680
13540713 4 18190437425746493220
13668630 136 17894908581840846299
13673619 4 18187083919354307668
13685833 64 18410291394090145442
13690498 29 18041840602162224636
13911852 28 18336540500300172130
13914758 101 18334284385019741989
13955234 65 18269265924146735672
14123256 34 18335141972869848554
14211702 104 18117844515574713491
14251732 14 15646775574080923495
14251740 57 18411693318602145418
14251764 30 18339079273123479990
14341114 176 18408604777206758577
14347424 109 18201717362220740216
15475509 84 17989208114333774672
16120349 21 18271531875191332473
1813 80 16805315621918953389
20028762 73 18342734126524858878
20645477 70 18113888407658597432
21065198 48 18342178907760003161
21130935 74 18341895255440582331
21150785 3 12468642733607736563
21267235 1 18408043991784758210
21279426 13 18041263401671209101
21585481 151 17989491784207584686
21682296 61 18408887321830805343
22864921 47 17202469174018128591
23016692 55 18260834765530875662
23081809 10 18059573650586663605
23522609 53 18119843289810950044
23559900 14 17023192672656521749
255183 451 18410297982881142924
34797466 226 15792014531991874229
4073 2 17971475349444806019
445580 126 9583518694590014766
465052 167 18412265043073525814
5104073 3 18200037364815250011
5372103 7 15431185615884578566
54039377 194 18339364047094270142
57091435 61 7925622294345832406
636775 8 18198349451881310254

>  <PUBCHEM_SHAPE_MULTIPOLES>  (1) 
419.3
19.15
3.05
1.05
11.38
0.03
-0.1
-17.45
-1.77
-5.84
0.76
-0.04
-0.1
0.17

>  <PUBCHEM_SHAPE_SELFOVERLAP>  (1) 
837.568

>  <PUBCHEM_SHAPE_VOLUME>  (1) 
248.9

>  <PUBCHEM_COORDINATE_TYPE>  (1) 
2
5
10

$$$$
