48953
     RDKit          3D

 22 23  0  0  1  0  0  0  0  0999 V2000
   -2.1079   -1.4717   -0.3363 O   0  0  0  0  0  0  0  0  0  0  0  0
   -1.6796   -0.2152   -2.2170 O   0  0  0  0  0  0  0  0  0  0  0  0
    0.0507   -3.0839    0.5381 N   0  0  0  0  0  0  0  0  0  0  0  0
    1.4913   -3.2407    0.7002 C   0  0  0  0  0  0  0  0  0  0  0  0
    2.2249   -2.0310    0.1232 C   0  0  0  0  0  0  0  0  0  0  0  0
    1.7859   -0.7383    0.8158 C   0  0  0  0  0  0  0  0  0  0  0  0
   -0.2959   -2.9366   -0.8766 C   0  0  0  0  0  0  0  0  0  0  0  0
    2.5285    0.4600    0.2826 C   0  0  0  0  0  0  0  0  0  0  0  0
   -0.6603   -4.2243    1.1187 C   0  0  0  0  0  0  0  0  0  0  0  0
   -1.7826   -2.6637   -1.0394 C   0  0  0  0  0  0  0  0  0  0  0  0
    3.7208    0.8437    0.8788 C   0  0  0  0  0  0  0  0  0  0  0  0
    2.0084    1.1601   -0.7960 C   0  0  0  0  0  0  0  0  0  0  0  0
    4.4083    1.9525    0.3854 C   0  0  0  0  0  0  0  0  0  0  0  0
    2.6961    2.2688   -1.2895 C   0  0  0  0  0  0  0  0  0  0  0  0
    3.8960    2.6649   -0.6987 C   0  0  0  0  0  0  0  0  0  0  0  0
   -2.0141   -0.3137   -1.0466 C   0  0  0  0  0  0  0  0  0  0  0  0
   -2.3768    0.8526   -0.2024 C   0  0  0  0  0  0  0  0  0  0  0  0
   -2.9416    1.9597   -0.8018 C   0  0  0  0  0  0  0  0  0  0  0  0
   -2.1383    0.7929    1.1554 C   0  0  0  0  0  0  0  0  0  0  0  0
   -3.2827    3.0554   -0.0088 C   0  0  0  0  0  0  0  0  0  0  0  0
   -2.4795    1.8886    1.9485 C   0  0  0  0  0  0  0  0  0  0  0  0
   -3.0517    3.0197    1.3663 C   0  0  0  0  0  0  0  0  0  0  0  0
  1 10  1  0
  1 16  1  0
  2 16  2  0
  3  4  1  0
  3  7  1  0
  3  9  1  0
  4  5  1  0
  5  6  1  0
  6  8  1  0
  7 10  1  0
  8 11  2  0
  8 12  1  0
 11 13  1  0
 12 14  2  0
 13 15  2  0
 14 15  1  0
 16 17  1  0
 17 18  2  0
 17 19  1  0
 18 20  1  0
 19 21  2  0
 20 22  2  0
 21 22  1  0
M  END
>  <PUBCHEM_COMPOUND_CID>  (1) 
48953

>  <PUBCHEM_CONFORMER_RMSD>  (1) 
1

>  <PUBCHEM_CONFORMER_DIVERSEORDER>  (1) 
3
71
239
222
90
23
144
160
50
53
177
87
37
179
1
99
129
93
233
242
117
73
45
64
186
115
209
113
79
56
40
7
140
38
118
197
180
164
54
152
8
29
48
267
243
122
5
148
82
25
264
14
224
188
74
63
135
121
247
89
94
153
240
211
86
72
248
223
47
183
225
134
65
46
102
193
142
84
251
19
106
100
2
166
119
213
249
96
32
176
254
36
124
130
216
75
55
43
204
143
78
9
95
163
12
116
169
61
154
212
131
228
67
182
250
85
107
261
149
168
206
13
260
103
266
210
31
6
174
111
21
167
110
238
44
187
57
97
200
220
128
4
109
24
22
221
146
10
136
35
147
105
207
80
20
170
69
16
236
77
17
76
253
203
171
157
245
151
232
263
181
196
62
11
252
268
123
255
91
132
120
125
70
28
33
191
173
246
30
215
192
41
189
52
108
218
27
178
58
39
227
229
208
259
18
190
241
127
126
195
265
34
256
258
162
175
138
159
198
66
184
205
49
98
150
155
68
165
114
101
230
158
161
88
202
60
244
199
226
262
137
15
234
194
112
237
104
133
235
145
26
42
269
92
201
83
231
139
156
81
172
141
257
217
185
214
51
59
219

>  <PUBCHEM_MMFF94_PARTIAL_CHARGES>  (1) 
31
1 -0.43
10 0.28
11 -0.15
12 -0.15
13 -0.15
14 -0.15
15 -0.15
16 0.63
17 0.09
18 -0.15
19 -0.15
2 -0.57
20 -0.15
21 -0.15
22 -0.15
3 -0.81
36 0.15
37 0.15
38 0.15
39 0.15
4 0.27
40 0.15
41 0.15
42 0.15
43 0.15
44 0.15
45 0.15
6 0.14
7 0.27
8 -0.14
9 0.27

>  <PUBCHEM_EFFECTIVE_ROTOR_COUNT>  (1) 
9

>  <PUBCHEM_PHARMACOPHORE_FEATURES>  (1) 
4
1 2 acceptor
1 3 cation
6 17 18 19 20 21 22 rings
6 8 11 12 13 14 15 rings

>  <PUBCHEM_HEAVY_ATOM_COUNT>  (1) 
22

>  <PUBCHEM_ATOM_DEF_STEREO_COUNT>  (1) 
0

>  <PUBCHEM_ATOM_UDEF_STEREO_COUNT>  (1) 
0

>  <PUBCHEM_BOND_DEF_STEREO_COUNT>  (1) 
0

>  <PUBCHEM_BOND_UDEF_STEREO_COUNT>  (1) 
0

>  <PUBCHEM_ISOTOPIC_ATOM_COUNT>  (1) 
0

>  <PUBCHEM_COMPONENT_COUNT>  (1) 
1

>  <PUBCHEM_CACTVS_TAUTO_COUNT>  (1) 
1

>  <PUBCHEM_CONFORMER_ID>  (1) 
0000BF3900000003

>  <PUBCHEM_MMFF94_ENERGY>  (1) 
55.79

>  <PUBCHEM_FEATURE_SELFOVERLAP>  (1) 
20.297

>  <PUBCHEM_SHAPE_FINGERPRINT>  (1) 
11244481 83 17028576822368560725
11640471 11 18058720287223199985
12156800 1 16328298119951420089
12788726 201 18195805403998560687
128993 33 18339658766546561814
13134695 92 17398391927626870595
13583140 156 17684660831554701945
14081887 123 17764293334473905328
14123250 116 18339363088292481376
14363568 33 17835256544879400902
14713325 29 18050023365570759134
151778 21 18195262021964106585
15463212 79 18410566327441670808
18785283 64 17907314152082325641
20510252 161 18122339339913367902
20775438 99 15246198595138573598
21141583 151 17474388453467568644
23558518 356 18411698794284969446
35225 105 17908464485509131553
474 4 18195237815701947387
5048184 11 18411984654486482256
5312544 6 18339356371485882941
550186 7 17912373323162588772
5939293 188 17835235645284169630

>  <PUBCHEM_SHAPE_MULTIPOLES>  (1) 
436.03
6.96
5.47
1.58
3.4
4.43
0.07
-8.17
-0.58
-0.6
-0.83
-0.87
-0.25
-1.75

>  <PUBCHEM_SHAPE_SELFOVERLAP>  (1) 
907.463

>  <PUBCHEM_SHAPE_VOLUME>  (1) 
247.9

>  <PUBCHEM_COORDINATE_TYPE>  (1) 
2
5
10

$$$$
