48963
     RDKit          3D

 19 20  0  0  1  0  0  0  0  0999 V2000
    1.2812    0.1955    0.6177 O   0  0  0  0  0  0  0  0  0  0  0  0
    1.7410    1.6943   -1.0560 O   0  0  0  0  0  0  0  0  0  0  0  0
   -2.9634    0.1055    0.5499 N   0  0  0  0  0  0  0  0  0  0  0  0
   -5.0746    0.4206   -0.7178 C   0  0  0  0  0  0  0  0  0  0  0  0
   -4.3511    0.5859    0.6293 C   0  0  0  0  0  0  0  0  0  0  0  0
   -5.0207   -1.0387   -1.1831 C   0  0  0  0  0  0  0  0  0  0  0  0
   -3.5832   -1.5477   -1.1800 C   0  0  0  0  0  0  0  0  0  0  0  0
   -2.9133   -1.3138    0.1740 C   0  0  0  0  0  0  0  0  0  0  0  0
   -2.2731    0.3222    1.8213 C   0  0  0  0  0  0  0  0  0  0  0  0
   -6.5210    0.9019   -0.6187 C   0  0  0  0  0  0  0  0  0  0  0  0
   -0.8204   -0.1315    1.7192 C   0  0  0  0  0  0  0  0  0  0  0  0
   -0.0640    0.6517    0.6547 C   0  0  0  0  0  0  0  0  0  0  0  0
    2.1062    0.8033   -0.2961 C   0  0  0  0  0  0  0  0  0  0  0  0
    3.4598    0.2496   -0.2395 C   0  0  0  0  0  0  0  0  0  0  0  0
    4.5462    1.0541   -0.5640 C   0  0  0  0  0  0  0  0  0  0  0  0
    3.6461   -1.0752    0.1384 C   0  0  0  0  0  0  0  0  0  0  0  0
    5.8363    0.5266   -0.5100 C   0  0  0  0  0  0  0  0  0  0  0  0
    4.9364   -1.6026    0.1925 C   0  0  0  0  0  0  0  0  0  0  0  0
    6.0314   -0.8016   -0.1317 C   0  0  0  0  0  0  0  0  0  0  0  0
  1 12  1  0
  1 13  1  0
  2 13  2  0
  3  5  1  0
  3  8  1  0
  3  9  1  0
  4  5  1  0
  4  6  1  0
  4 10  1  0
  6  7  1  0
  7  8  1  0
  9 11  1  0
 11 12  1  0
 13 14  1  0
 14 15  2  0
 14 16  1  0
 15 17  1  0
 16 18  2  0
 17 19  2  0
 18 19  1  0
M  END
>  <PUBCHEM_COMPOUND_CID>  (1) 
48963

>  <PUBCHEM_CONFORMER_RMSD>  (1) 
0.8

>  <PUBCHEM_CONFORMER_DIVERSEORDER>  (1) 
2
334
259
1
196
191
197
280
321
108
312
154
177
208
257
186
314
8
116
229
55
275
248
296
54
211
306
114
107
231
340
219
179
103
188
336
117
35
318
327
143
319
293
58
204
218
83
78
210
285
167
136
60
187
66
92
325
11
203
213
87
160
71
225
193
232
26
113
227
282
90
33
137
190
297
172
287
263
292
159
295
19
82
221
185
300
97
141
216
209
22
302
331
144
235
76
288
310
45
243
344
278
328
111
180
245
124
343
171
224
44
69
270
348
130
156
67
50
256
57
170
119
115
104
264
151
164
140
308
63
157
299
152
262
6
317
120
94
146
320
244
23
241
56
330
192
345
150
274
324
49
109
17
169
122
214
98
86
260
212
233
189
80
255
237
158
42
173
100
138
131
322
284
85
102
339
326
105
163
123
51
165
93
222
166
110
350
266
194
27
15
316
25
258
10
223
121
129
168
77
294
47
281
128
79
252
341
181
99
207
37
333
34
234
240
347
315
261
338
162
247
32
250
53
307
155
342
349
309
269
7
286
200
205
4
242
251
199
332
142
176
147
206
277
230
29
226
238
145
38
217
39
135
133
61
127
126
161
239
75
311
43
84
215
279
125
195
112
52
268
20
72
14
81
201
24
305
5
246
21
184
323
178
236
228
291
265
313
59
12
70
3
18
276
290
16
148
149
132
139
62
271
41
183
101
289
182
329
175
74
335
30
95
96
220
303
40
31
298
68
346
174
91
202
9
198
48
73
106
153
337
134
118
249
64
273
301
254
267
304
36
283
28
65
253
88
46
89
272
13

>  <PUBCHEM_MMFF94_PARTIAL_CHARGES>  (1) 
19
1 -0.43
12 0.28
13 0.63
14 0.09
15 -0.15
16 -0.15
17 -0.15
18 -0.15
19 -0.15
2 -0.57
3 -0.81
38 0.15
39 0.15
40 0.15
41 0.15
42 0.15
5 0.27
8 0.27
9 0.27

>  <PUBCHEM_EFFECTIVE_ROTOR_COUNT>  (1) 
7.2

>  <PUBCHEM_PHARMACOPHORE_FEATURES>  (1) 
4
1 2 acceptor
1 3 cation
6 14 15 16 17 18 19 rings
6 3 4 5 6 7 8 rings

>  <PUBCHEM_HEAVY_ATOM_COUNT>  (1) 
19

>  <PUBCHEM_ATOM_DEF_STEREO_COUNT>  (1) 
0

>  <PUBCHEM_ATOM_UDEF_STEREO_COUNT>  (1) 
1

>  <PUBCHEM_BOND_DEF_STEREO_COUNT>  (1) 
0

>  <PUBCHEM_BOND_UDEF_STEREO_COUNT>  (1) 
0

>  <PUBCHEM_ISOTOPIC_ATOM_COUNT>  (1) 
0

>  <PUBCHEM_COMPONENT_COUNT>  (1) 
1

>  <PUBCHEM_CACTVS_TAUTO_COUNT>  (1) 
1

>  <PUBCHEM_CONFORMER_ID>  (1) 
0000BF4300000002

>  <PUBCHEM_MMFF94_ENERGY>  (1) 
34.5023

>  <PUBCHEM_FEATURE_SELFOVERLAP>  (1) 
20.297

>  <PUBCHEM_SHAPE_FINGERPRINT>  (1) 
100836 57 13984662546622523864
10354089 29 8862940581025575778
10366900 7 16343989108816063986
10447042 23 18407760322849950938
105312 117 15864067685012915403
10613725 11 18335137583676561381
10670039 82 15213288682366120295
10803635 8 18202279208852564207
11315181 36 17703793638719900321
11796584 16 18060701705807901615
12236239 1 18201721756204119398
12390115 104 15285909209989736623
12596602 18 17775000224202065342
12916748 109 11963388522966198418
13177829 20 9223219772423427453
13668630 136 18131073727309174750
13897977 58 11818995180129170987
1420 363 14261352453150809288
14251752 14 18342453717200326957
14848160 23 16271924913086016551
14849402 71 9222930571022889910
15183329 4 18335696122735525575
15188451 53 17060054805522396214
15788980 27 18411984671475914811
17834072 33 18201722873016883792
17834072 8 17603587413086838360
17857418 61 18272931609581384130
18186145 218 17023180573971077873
18222031 100 16917353636639297632
19489759 90 17132116818944346545
200 152 18411985762603433880
20028762 73 18130223745399101046
20281389 69 13767924632875501804
20374829 77 17132110260824593587
20511986 3 18271512161523799086
20645477 56 14634866461801525555
20645477 70 18040443174750327162
21728266 224 17632579314297647674
221357 26 17894624842593425037
22224240 67 12463280402139566372
23198884 109 18186799180423919919
23402539 116 18334579044296064761
23536379 177 18408884027537771533
23557571 272 15769232552127575400
23559900 14 17560506413318076129
29717793 49 18343306942433896750
300161 21 18410572903252228936
3004659 81 18202279216788351370
3009799 131 18040714766822607992
312425 54 12679194829301976023
314173 85 15339125654035608075
339767 52 17632856425550746750
439807 62 18200589341312658327
5385378 56 15502930818710746105
542803 24 12107788518913360648
54446538 1 10881402040911035430
559249 180 18273493464503021239
59682541 35 13542167412440351142
59682541 52 17895457155900586527
59755656 520 16515402976276611363
67856867 119 17916864750356757072
7495541 125 16486971817427047866
960060 61 18187653509485346166
9971528 1 18260265282979955740
9996256 80 14345794959381335081

>  <PUBCHEM_SHAPE_MULTIPOLES>  (1) 
374.29
16.81
1.46
1.31
1.3
0.45
-0.34
1.84
4.99
-0.07
0.26
-0.92
-0.18
-1.22

>  <PUBCHEM_SHAPE_SELFOVERLAP>  (1) 
764.867

>  <PUBCHEM_SHAPE_VOLUME>  (1) 
215.8

>  <PUBCHEM_COORDINATE_TYPE>  (1) 
2
5
10

$$$$
