48979
     RDKit          3D

 22 23  0  0  1  0  0  0  0  0999 V2000
    1.5159    1.7384   -0.2044 O   0  0  0  0  0  0  0  0  0  0  0  0
    2.3139    0.8270   -2.1517 O   0  0  0  0  0  0  0  0  0  0  0  0
    3.2339   -1.7081   -1.6071 O   0  0  0  0  0  0  0  0  0  0  0  0
   -2.5751    0.7155   -0.0107 N   0  0  0  0  0  0  0  0  0  0  0  0
   -4.5410   -1.4625    0.1315 C   0  0  0  0  0  0  0  0  0  0  0  0
   -2.3498   -0.5292   -0.7778 C   0  0  0  0  0  0  0  0  0  0  0  0
   -3.3482    0.5069    1.2320 C   0  0  0  0  0  0  0  0  0  0  0  0
   -3.6935   -1.1995   -1.1150 C   0  0  0  0  0  0  0  0  0  0  0  0
   -4.7029   -0.1596    0.9177 C   0  0  0  0  0  0  0  0  0  0  0  0
   -1.3290    1.4531    0.1996 C   0  0  0  0  0  0  0  0  0  0  0  0
   -5.9015   -2.0445   -0.2473 C   0  0  0  0  0  0  0  0  0  0  0  0
   -1.3799   -1.5293   -0.1278 C   0  0  0  0  0  0  0  0  0  0  0  0
   -3.6297    1.8168    1.9853 C   0  0  0  0  0  0  0  0  0  0  0  0
   -0.6881    1.8025   -1.1398 C   0  0  0  0  0  0  0  0  0  0  0  0
    0.6237    2.5527   -0.9528 C   0  0  0  0  0  0  0  0  0  0  0  0
    2.3275    0.8995   -0.9273 C   0  0  0  0  0  0  0  0  0  0  0  0
    3.1969    0.1152   -0.0489 C   0  0  0  0  0  0  0  0  0  0  0  0
    3.6174   -1.1577   -0.4208 C   0  0  0  0  0  0  0  0  0  0  0  0
    3.5950    0.6641    1.1660 C   0  0  0  0  0  0  0  0  0  0  0  0
    4.4450   -1.8894    0.4311 C   0  0  0  0  0  0  0  0  0  0  0  0
    4.4224   -0.0678    2.0178 C   0  0  0  0  0  0  0  0  0  0  0  0
    4.8473   -1.3444    1.6505 C   0  0  0  0  0  0  0  0  0  0  0  0
  1 15  1  0
  1 16  1  0
  2 16  2  0
  3 18  1  0
  4  6  1  0
  4  7  1  0
  4 10  1  0
  5  8  1  0
  5  9  1  0
  5 11  1  0
  6  8  1  0
  6 12  1  0
  7  9  1  0
  7 13  1  0
 10 14  1  0
 14 15  1  0
 16 17  1  0
 17 18  2  0
 17 19  1  0
 18 20  1  0
 19 21  2  0
 20 22  2  0
 21 22  1  0
M  END
>  <PUBCHEM_COMPOUND_CID>  (1) 
48979

>  <PUBCHEM_CONFORMER_RMSD>  (1) 
1

>  <PUBCHEM_CONFORMER_DIVERSEORDER>  (1) 
1
609
3
107
567
131
638
109
529
491
152
602
448
372
148
65
543
425
100
168
657
310
182
150
66
458
233
466
486
427
17
612
223
86
31
289
585
688
46
570
121
67
292
659
24
413
395
231
279
161
634
2
39
253
288
94
575
177
25
384
343
254
89
382
689
351
160
388
481
655
307
147
426
58
5
521
170
494
36
381
482
468
364
249
53
149
179
620
627
207
487
377
621
437
115
407
410
270
102
397
619
623
650
305
8
505
10
394
349
193
428
672
308
352
362
346
195
386
217
137
603
203
158
118
85
652
108
77
636
106
311
128
677
33
202
474
111
439
685
514
4
26
690
83
126
201
412
37
568
441
391
591
62
360
189
600
220
219
403
224
550
509
330
236
56
70
13
117
417
358
644
124
167
273
138
12
21
210
635
197
9
30
119
213
455
276
34
592
190
408
234
367
6
418
414
415
214
55
664
40
679
402
18
16
29
265
558
146
215
639
340
429
11
125
23
357
90
485
7
206
361
374
64
280
71
252
641
528
344
14
22
341
257

>  <PUBCHEM_MMFF94_PARTIAL_CHARGES>  (1) 
20
1 -0.43
10 0.27
15 0.28
16 0.63
17 0.09
18 0.08
19 -0.15
2 -0.57
20 -0.15
21 -0.15
22 -0.15
3 -0.53
4 -0.81
45 0.15
46 0.15
47 0.15
48 0.15
49 0.45
6 0.27
7 0.27

>  <PUBCHEM_EFFECTIVE_ROTOR_COUNT>  (1) 
7.2

>  <PUBCHEM_PHARMACOPHORE_FEATURES>  (1) 
5
1 2 acceptor
1 3 donor
1 4 cation
6 17 18 19 20 21 22 rings
6 4 5 6 7 8 9 rings

>  <PUBCHEM_HEAVY_ATOM_COUNT>  (1) 
22

>  <PUBCHEM_ATOM_DEF_STEREO_COUNT>  (1) 
0

>  <PUBCHEM_ATOM_UDEF_STEREO_COUNT>  (1) 
2

>  <PUBCHEM_BOND_DEF_STEREO_COUNT>  (1) 
0

>  <PUBCHEM_BOND_UDEF_STEREO_COUNT>  (1) 
0

>  <PUBCHEM_ISOTOPIC_ATOM_COUNT>  (1) 
0

>  <PUBCHEM_COMPONENT_COUNT>  (1) 
1

>  <PUBCHEM_CACTVS_TAUTO_COUNT>  (1) 
4

>  <PUBCHEM_CONFORMER_ID>  (1) 
0000BF5300000001

>  <PUBCHEM_MMFF94_ENERGY>  (1) 
45.2713

>  <PUBCHEM_FEATURE_SELFOVERLAP>  (1) 
25.372

>  <PUBCHEM_SHAPE_FINGERPRINT>  (1) 
10928967 22 18113624443285165330
11370993 144 17416684644528144664
11720765 8 10954276538567212056
12363563 72 17967812730379214748
12422481 6 18270131097831168009
12553582 1 18333739000585911996
12596602 18 18272083920096208826
12633257 1 18059566958822057408
12892183 10 17632859706842470176
13533116 47 18268710683337324329
13583140 156 16558456513766117881
13692114 37 17978792303783202129
13828863 39 16914792981580252256
13887833 79 13623530138712776488
14178342 30 18130231454046881365
1420 369 18334008393598033690
14251740 57 18202291307274901006
14251764 38 13397534264024753771
14251764 75 13109814220145521794
14341114 328 16343413011914755178
14528608 73 9151177545520060563
14848178 5 18335976541092369507
14848178 96 10519985971885918290
15188451 53 18271798038968536867
15210252 30 10519697917352561586
15342168 16 11311784981504901313
17349148 13 18411986896786179151
1798214 55 11312053266462738704
1813 80 18186804681496733421
193927 3 17603869962153480792
1979834 28 17917439747624930455
20403669 9 18333165072400832055
20645477 70 17604144934207008820
20693207 138 15069205448873651304
20775530 9 17098613462775091762
21033648 29 15626233376896328049
21065199 12 17489590034692117112
21713013 43 14924240321140016521
235170 7 14201410377770902978
23559900 14 17059520468203680205
2838139 119 8862354545866045010
3004659 81 18113901580317877022
3472631 163 8430322337840610155
44062 13 17604419692218807301
56633871 153 18195253209002295531
7064713 232 18131076978641342643
7808743 9 11599423846191694490
7970288 3 18041274387886777410
960060 61 16805325521691657951

>  <PUBCHEM_SHAPE_MULTIPOLES>  (1) 
430.16
12.47
2.46
1.79
2.71
0.38
-0.29
-7.84
-4.35
0.5
0.39
-1
0.4
-1.48

>  <PUBCHEM_SHAPE_SELFOVERLAP>  (1) 
882.145

>  <PUBCHEM_SHAPE_VOLUME>  (1) 
247.8

>  <PUBCHEM_COORDINATE_TYPE>  (1) 
2
5
10

$$$$
