48970
     RDKit          3D

 24 25  0  0  0  0  0  0  0  0999 V2000
   -3.0670   -0.5866    0.0011 O   0  0  0  0  0  0  0  0  0  0  0  0
    2.9416   -0.1644   -1.6673 O   0  0  0  0  0  0  0  0  0  0  0  0
   -2.3816   -2.5951    0.8929 O   0  0  0  0  0  0  0  0  0  0  0  0
   -7.5339    1.2854    0.0498 N   0  0  0  0  0  0  0  0  0  0  0  0
   -6.7176    0.1540    0.4727 C   0  0  0  0  0  0  0  0  0  0  0  0
   -5.2695    0.3538    0.0370 C   0  0  0  0  0  0  0  0  0  0  0  0
   -4.3954   -0.8239    0.4461 C   0  0  0  0  0  0  0  0  0  0  0  0
    4.7537    1.4287   -1.5679 C   0  0  0  0  0  0  0  0  0  0  0  0
    3.2524    1.2262   -1.7408 C   0  0  0  0  0  0  0  0  0  0  0  0
   -8.9398    0.8931   -0.0640 C   0  0  0  0  0  0  0  0  0  0  0  0
   -7.3929    2.4017    0.9865 C   0  0  0  0  0  0  0  0  0  0  0  0
    5.2463    0.9502   -0.2237 C   0  0  0  0  0  0  0  0  0  0  0  0
   -0.8126   -1.1889   -0.2234 C   0  0  0  0  0  0  0  0  0  0  0  0
    1.7109   -0.4997   -1.1926 C   0  0  0  0  0  0  0  0  0  0  0  0
   -2.1558   -1.5563    0.2918 C   0  0  0  0  0  0  0  0  0  0  0  0
    5.2729    1.8261    0.8615 C   0  0  0  0  0  0  0  0  0  0  0  0
    5.6753   -0.3677   -0.0669 C   0  0  0  0  0  0  0  0  0  0  0  0
    0.2680   -2.0494   -0.0294 C   0  0  0  0  0  0  0  0  0  0  0  0
   -0.6314    0.0161   -0.9022 C   0  0  0  0  0  0  0  0  0  0  0  0
    1.5297   -1.7049   -0.5139 C   0  0  0  0  0  0  0  0  0  0  0  0
    0.6303    0.3607   -1.3868 C   0  0  0  0  0  0  0  0  0  0  0  0
    5.7285    1.3841    2.1037 C   0  0  0  0  0  0  0  0  0  0  0  0
    6.1308   -0.8097    1.1752 C   0  0  0  0  0  0  0  0  0  0  0  0
    6.1574    0.0662    2.2605 C   0  0  0  0  0  0  0  0  0  0  0  0
  1  7  1  0
  1 15  1  0
  2  9  1  0
  2 14  1  0
  3 15  2  0
  4  5  1  0
  4 10  1  0
  4 11  1  0
  5  6  1  0
  6  7  1  0
  8  9  1  0
  8 12  1  0
 12 16  2  0
 12 17  1  0
 13 15  1  0
 13 18  2  0
 13 19  1  0
 14 20  2  0
 14 21  1  0
 16 22  1  0
 17 23  2  0
 18 20  1  0
 19 21  2  0
 22 24  2  0
 23 24  1  0
M  END
>  <PUBCHEM_COMPOUND_CID>  (1) 
48970

>  <PUBCHEM_CONFORMER_RMSD>  (1) 
1

>  <PUBCHEM_CONFORMER_DIVERSEORDER>  (1) 
1
181
203
140
103
100
183
119
145
185
45
148
205
173
13
121
78
206
202
170
20
192
53
189
44
104
147
4
129
79
112
81
109
42
96
27
176
76
201
70
18
46
179
207
149
163
195
200
169
94
160
132
31
24
28
122
87
3
39
196
48
93
198
123
186
17
113
34
150
175
88
41
137
52
190
47
167
115
63
139
116
19
154
49
133
188
142
120
15
65
77
89
8
75
83
95
135
38
54
85
193
101
68
178
117
55
23
36
180
25
153
158
199
99
10
118
168
144
171
16
43
58
90
197
107
108
84
64
22
6
182
82
162
29
127
157
5
73
35
98
9
105
91
86
51
62
152
131
204
12
21
143
57
61
26
60
72
33
194
184
151
141
191
69
67
66
208
159
136
161
110
111
50
114
37
80
125
40
92
155
11
124
187
97
130
59
128
146
164
138
102
14
166
172
2
106
177
71
174
32
165
56
30
156
7
74
126
134

>  <PUBCHEM_MMFF94_PARTIAL_CHARGES>  (1) 
32
1 -0.43
10 0.27
11 0.27
12 -0.14
13 0.09
14 0.08
15 0.63
16 -0.15
17 -0.15
18 -0.15
19 -0.15
2 -0.36
20 -0.15
21 -0.15
22 -0.15
23 -0.15
24 -0.15
3 -0.57
4 -0.81
41 0.15
42 0.15
43 0.15
44 0.15
45 0.15
46 0.15
47 0.15
48 0.15
49 0.15
5 0.27
7 0.28
8 0.14
9 0.28

>  <PUBCHEM_EFFECTIVE_ROTOR_COUNT>  (1) 
10

>  <PUBCHEM_PHARMACOPHORE_FEATURES>  (1) 
5
1 2 acceptor
1 3 acceptor
1 4 cation
6 12 16 17 22 23 24 rings
6 13 14 18 19 20 21 rings

>  <PUBCHEM_HEAVY_ATOM_COUNT>  (1) 
24

>  <PUBCHEM_ATOM_DEF_STEREO_COUNT>  (1) 
0

>  <PUBCHEM_ATOM_UDEF_STEREO_COUNT>  (1) 
0

>  <PUBCHEM_BOND_DEF_STEREO_COUNT>  (1) 
0

>  <PUBCHEM_BOND_UDEF_STEREO_COUNT>  (1) 
0

>  <PUBCHEM_ISOTOPIC_ATOM_COUNT>  (1) 
0

>  <PUBCHEM_COMPONENT_COUNT>  (1) 
1

>  <PUBCHEM_CACTVS_TAUTO_COUNT>  (1) 
1

>  <PUBCHEM_CONFORMER_ID>  (1) 
0000BF4A00000001

>  <PUBCHEM_MMFF94_ENERGY>  (1) 
65.7959

>  <PUBCHEM_FEATURE_SELFOVERLAP>  (1) 
25.372

>  <PUBCHEM_SHAPE_FINGERPRINT>  (1) 
10 15 17531256071340909781
10280341 67 18199181794825903777
10498660 4 13326014512500170890
10692045 39 17385442098665497003
10883706 89 16879057552049070817
11408170 132 12895078367223337427
11476731 38 13183018549498058575
11638347 137 15213307426695292713
11761917 142 18198345044496044545
11961588 58 15626223532741491622
12107183 9 17894348899444452702
12422481 6 17967246490607556086
12778500 126 18260543429520237384
13422730 43 18335139830857372715
13673619 4 10953457444916647279
13685833 64 12396299249049979097
13782708 43 12613033929013714121
14123256 34 9079112250990736917
14347424 109 17676204702099976612
14528608 73 12823027443126837146
14556957 393 14404916803508222787
14767858 380 12679464187759024285
15350500 55 17631726205740676992
15352257 5 12396300357141499129
15475509 35 14707197825977456408
1577012 14 17895199955967704847
18335252 114 15841556284647286696
20157964 124 16200437974747735228
20554085 129 18272928323852678019
21150785 3 13686295773259661173
21344244 181 12396293734492287608
21360443 126 15051725404852238581
21591340 7 18186517722954346991
21774942 28 17845382063566677721
21792934 111 18041275466387064413
23559900 14 18270140005889129566
312425 54 16226333723691140217
4072396 5 18261112989111809502
4093350 32 18131070377082203262
445580 126 18334014961320440977
445580 167 13901907813149291115
465052 167 14562525181242797714
474 4 15482398672651098406
5104073 3 17531815790961868683
5283384 27 16773508971463114672
5470011 282 14620799280451465021
563151 248 15864075399142989891
57634706 306 16630231598019648450
6058803 2 17317058161801945263
8509985 295 18335700594150110028

>  <PUBCHEM_SHAPE_MULTIPOLES>  (1) 
471.32
23.61
2.15
1.72
39
0.12
0.15
-15.54
9.21
1.16
0.51
-3.75
-0.54
-0.11

>  <PUBCHEM_SHAPE_SELFOVERLAP>  (1) 
974.057

>  <PUBCHEM_SHAPE_VOLUME>  (1) 
270.5

>  <PUBCHEM_COORDINATE_TYPE>  (1) 
2
5
10

$$$$
