48984
     RDKit          3D

 25 26  0  0  1  0  0  0  0  0999 V2000
   -0.8833    1.2670   -0.0892 O   0  0  0  0  0  0  0  0  0  0  0  0
    5.2730    0.5853    0.7476 O   0  0  0  0  0  0  0  0  0  0  0  0
   -0.2656    3.3714   -0.7886 O   0  0  0  0  0  0  0  0  0  0  0  0
   -5.3662   -0.5529    0.1748 N   0  0  0  0  0  0  0  0  0  0  0  0
   -6.7146   -0.2151    0.6699 C   0  0  0  0  0  0  0  0  0  0  0  0
   -7.4279   -1.4960    1.1436 C   0  0  0  0  0  0  0  0  0  0  0  0
   -5.3739   -1.5447   -0.9062 C   0  0  0  0  0  0  0  0  0  0  0  0
   -7.4650   -2.5765    0.0669 C   0  0  0  0  0  0  0  0  0  0  0  0
   -6.0635   -2.8376   -0.4702 C   0  0  0  0  0  0  0  0  0  0  0  0
   -4.5805    0.6209   -0.1952 C   0  0  0  0  0  0  0  0  0  0  0  0
   -7.5947    0.5732   -0.3125 C   0  0  0  0  0  0  0  0  0  0  0  0
   -3.0949    0.3550    0.0268 C   0  0  0  0  0  0  0  0  0  0  0  0
   -2.2503    1.5706   -0.3303 C   0  0  0  0  0  0  0  0  0  0  0  0
    7.4543   -2.4259    0.0091 C   0  0  0  0  0  0  0  0  0  0  0  0
    7.0253   -0.9649    0.2194 C   0  0  0  0  0  0  0  0  0  0  0  0
    0.0078    2.2605   -0.3616 C   0  0  0  0  0  0  0  0  0  0  0  0
    5.5579   -0.8048    0.5990 C   0  0  0  0  0  0  0  0  0  0  0  0
    6.6280   -3.0537   -1.1158 C   0  0  0  0  0  0  0  0  0  0  0  0
    8.9443   -2.5552   -0.3105 C   0  0  0  0  0  0  0  0  0  0  0  0
    1.3950    1.8186   -0.0704 C   0  0  0  0  0  0  0  0  0  0  0  0
    4.0016    0.9893    0.4780 C   0  0  0  0  0  0  0  0  0  0  0  0
    2.4635    2.6896   -0.2832 C   0  0  0  0  0  0  0  0  0  0  0  0
    1.6299    0.5328    0.4168 C   0  0  0  0  0  0  0  0  0  0  0  0
    3.7667    2.2751   -0.0091 C   0  0  0  0  0  0  0  0  0  0  0  0
    2.9332    0.1181    0.6909 C   0  0  0  0  0  0  0  0  0  0  0  0
  1 13  1  0
  1 16  1  0
  2 17  1  0
  2 21  1  0
  3 16  2  0
  4  5  1  0
  4  7  1  0
  4 10  1  0
  5  6  1  0
  5 11  1  0
  6  8  1  0
  7  9  1  0
  8  9  1  0
 10 12  1  0
 12 13  1  0
 14 15  1  0
 14 18  1  0
 14 19  1  0
 15 17  1  0
 16 20  1  0
 20 22  2  0
 20 23  1  0
 21 24  2  0
 21 25  1  0
 22 24  1  0
 23 25  2  0
M  END
>  <PUBCHEM_COMPOUND_CID>  (1) 
48984

>  <PUBCHEM_CONFORMER_RMSD>  (1) 
1.4

>  <PUBCHEM_CONFORMER_DIVERSEORDER>  (1) 
1
46
11
5
19
40
35
44
10
7
6
30
2
42
12
43
32
38
37
41
25
4
13
20
34
9
24
28
17
47
31
18
8
14
39
45
15
33
27
23
26
29
3
36
16
21
22

>  <PUBCHEM_MMFF94_PARTIAL_CHARGES>  (1) 
20
1 -0.43
10 0.27
13 0.28
16 0.63
17 0.28
2 -0.36
20 0.09
21 0.08
22 -0.15
23 -0.15
24 -0.15
25 -0.15
3 -0.57
4 -0.81
5 0.27
55 0.15
56 0.15
57 0.15
58 0.15
7 0.27

>  <PUBCHEM_EFFECTIVE_ROTOR_COUNT>  (1) 
11.2

>  <PUBCHEM_PHARMACOPHORE_FEATURES>  (1) 
6
1 2 acceptor
1 3 acceptor
1 4 cation
3 14 18 19 hydrophobe
6 20 21 22 23 24 25 rings
6 4 5 6 7 8 9 rings

>  <PUBCHEM_HEAVY_ATOM_COUNT>  (1) 
25

>  <PUBCHEM_ATOM_DEF_STEREO_COUNT>  (1) 
0

>  <PUBCHEM_ATOM_UDEF_STEREO_COUNT>  (1) 
1

>  <PUBCHEM_BOND_DEF_STEREO_COUNT>  (1) 
0

>  <PUBCHEM_BOND_UDEF_STEREO_COUNT>  (1) 
0

>  <PUBCHEM_ISOTOPIC_ATOM_COUNT>  (1) 
0

>  <PUBCHEM_COMPONENT_COUNT>  (1) 
1

>  <PUBCHEM_CACTVS_TAUTO_COUNT>  (1) 
1

>  <PUBCHEM_CONFORMER_ID>  (1) 
0000BF5800000001

>  <PUBCHEM_MMFF94_ENERGY>  (1) 
49.576

>  <PUBCHEM_FEATURE_SELFOVERLAP>  (1) 
30.446

>  <PUBCHEM_SHAPE_FINGERPRINT>  (1) 
10411042 1 18408885110308224452
10669705 251 18272655636542981734
10740516 88 18129393614056709886
11409948 8 18272355471012785202
11497681 19 18408324380937070700
11963148 33 18263354803475509466
125118 31 10159689210494673546
13248334 5 18121218946572356452
13530399 1 11170176642025070695
13533116 47 18338515360422378864
1361 4 18192712469590296571
13668630 136 18187642522626778033
13690498 29 17968371256474273261
14123256 34 18334294262173268417
14178184 131 18131062770737515255
14420673 8 18408604782176887483
14428016 167 18409726232054935250
14556957 393 15430608238228466630
14565420 104 11455896853834824428
14931854 50 17385437700518694258
15510800 12 18259994785470194731
16120349 21 18411984637786271273
16992779 147 16485262150187725712
18335252 98 18411980261757967648
18643901 69 18040716931301340229
20028762 73 18411979165760923226
20165401 70 18342173418401642718
2026 5 18336264523372626778
20398071 356 18410576201660836291
20982279 24 17532663532989876035
21095086 4 18128825149454652318
21130935 74 18269836578996705065
21267235 1 18335140877758566232
21585481 151 18342741797288535098
23522609 53 18120123703841373005
255183 451 18333453136633251180
270888 7 9367344838555006608
3004659 81 17821442478098523897
33532 11 18411699893943776914
3504750 166 18343862239177797589
406291 66 18409444782795131394
465052 167 18413389860617182228
5104073 3 15122641757344271968
54039377 194 18410294696993849350
5470011 282 17531251647661900910
559249 180 18339076095353505015
5718773 13 18410291419258328558
5937810 71 12179836170482489271
636775 72 9294994774271427846
636775 8 18339084783903936422
6712543 237 16271928220522227775
9831232 110 18340772529630414934
999808 66 18342453720804419143

>  <PUBCHEM_SHAPE_MULTIPOLES>  (1) 
491.9
28.48
3.86
0.88
0.13
0.55
-0.01
32.01
-1.04
3.21
1.06
-0.17
0.21
1.21

>  <PUBCHEM_SHAPE_SELFOVERLAP>  (1) 
990.25

>  <PUBCHEM_SHAPE_VOLUME>  (1) 
288.9

>  <PUBCHEM_COORDINATE_TYPE>  (1) 
2
5
10

$$$$
