48996
     RDKit          3D

 19 20  0  0  1  0  0  0  0  0999 V2000
    1.1640   -1.3139   -0.5899 O   0  0  0  0  0  0  0  0  0  0  0  0
    1.2243   -0.9500    1.6823 O   0  0  0  0  0  0  0  0  0  0  0  0
   -2.3449   -0.1222   -0.3885 N   0  0  0  0  0  0  0  0  0  0  0  0
   -4.4458    1.1949   -0.2630 C   0  0  0  0  0  0  0  0  0  0  0  0
   -2.9087    1.2251   -0.2162 C   0  0  0  0  0  0  0  0  0  0  0  0
   -4.9980    0.2261    0.7883 C   0  0  0  0  0  0  0  0  0  0  0  0
   -4.3421   -1.1436    0.6496 C   0  0  0  0  0  0  0  0  0  0  0  0
   -2.8175   -1.0339    0.6619 C   0  0  0  0  0  0  0  0  0  0  0  0
   -0.8831   -0.0678   -0.3988 C   0  0  0  0  0  0  0  0  0  0  0  0
   -5.0217    2.5953   -0.0612 C   0  0  0  0  0  0  0  0  0  0  0  0
   -0.2568   -1.4471   -0.6179 C   0  0  0  0  0  0  0  0  0  0  0  0
   -0.6349   -2.0700   -1.9557 C   0  0  0  0  0  0  0  0  0  0  0  0
    1.6901   -0.8180    0.5611 C   0  0  0  0  0  0  0  0  0  0  0  0
    2.9414   -0.0693    0.2821 C   0  0  0  0  0  0  0  0  0  0  0  0
    3.9245   -0.0295    1.2496 C   0  0  0  0  0  0  0  0  0  0  0  0
    3.0828    0.5630   -0.9363 C   0  0  0  0  0  0  0  0  0  0  0  0
    5.1003    0.6736    0.9875 C   0  0  0  0  0  0  0  0  0  0  0  0
    4.2587    1.2660   -1.1984 C   0  0  0  0  0  0  0  0  0  0  0  0
    5.2675    1.3212   -0.2364 C   0  0  0  0  0  0  0  0  0  0  0  0
  1 11  1  0
  1 13  1  0
  2 13  2  0
  3  5  1  0
  3  8  1  0
  3  9  1  0
  4  5  1  0
  4  6  1  0
  4 10  1  0
  6  7  1  0
  7  8  1  0
  9 11  1  0
 11 12  1  0
 13 14  1  0
 14 15  2  0
 14 16  1  0
 15 17  1  0
 16 18  2  0
 17 19  2  0
 18 19  1  0
M  END
>  <PUBCHEM_COMPOUND_CID>  (1) 
48996

>  <PUBCHEM_CONFORMER_RMSD>  (1) 
0.8

>  <PUBCHEM_CONFORMER_DIVERSEORDER>  (1) 
1
127
122
30
96
14
107
82
130
79
86
114
13
70
68
128
25
108
6
69
116
15
93
28
74
105
42
90
119
118
129
52
67
137
131
104
43
57
60
54
47
113
94
87
102
33
120
11
4
133
27
9
66
112
95
138
31
106
59
124
2
83
62
99
111
98
136
41
73
56
110
115
81
71
91
17
7
117
125
80
84
45
46
53
51
63
89
58
123
39
88
32
40
26
8
72
126
23
18
75
36
49
24
21
132
97
55
109
35
48
20
92
61
29
16
22
19
85
10
135
103
100
34
65
77
76
101
121
44
50
3
134
37
64
5
78
38
12

>  <PUBCHEM_MMFF94_PARTIAL_CHARGES>  (1) 
19
1 -0.43
11 0.28
13 0.63
14 0.09
15 -0.15
16 -0.15
17 -0.15
18 -0.15
19 -0.15
2 -0.57
3 -0.81
38 0.15
39 0.15
40 0.15
41 0.15
42 0.15
5 0.27
8 0.27
9 0.27

>  <PUBCHEM_EFFECTIVE_ROTOR_COUNT>  (1) 
6.2

>  <PUBCHEM_PHARMACOPHORE_FEATURES>  (1) 
4
1 2 acceptor
1 3 cation
6 14 15 16 17 18 19 rings
6 3 4 5 6 7 8 rings

>  <PUBCHEM_HEAVY_ATOM_COUNT>  (1) 
19

>  <PUBCHEM_ATOM_DEF_STEREO_COUNT>  (1) 
0

>  <PUBCHEM_ATOM_UDEF_STEREO_COUNT>  (1) 
2

>  <PUBCHEM_BOND_DEF_STEREO_COUNT>  (1) 
0

>  <PUBCHEM_BOND_UDEF_STEREO_COUNT>  (1) 
0

>  <PUBCHEM_ISOTOPIC_ATOM_COUNT>  (1) 
0

>  <PUBCHEM_COMPONENT_COUNT>  (1) 
1

>  <PUBCHEM_CACTVS_TAUTO_COUNT>  (1) 
1

>  <PUBCHEM_CONFORMER_ID>  (1) 
0000BF6400000001

>  <PUBCHEM_MMFF94_ENERGY>  (1) 
40.7537

>  <PUBCHEM_FEATURE_SELFOVERLAP>  (1) 
20.297

>  <PUBCHEM_SHAPE_FINGERPRINT>  (1) 
10354089 29 17748827432319083732
10498660 4 17918270943933996785
105312 117 17917991689492184863
10670039 82 18200326424557239348
11046707 91 8790888488302618959
11552529 35 17387979926132179226
12107183 9 17463958073602004697
12236239 1 18260546740881895880
12363563 72 11963394015997391447
12403259 118 18334571364989543613
12596602 18 16877946070368559761
12633257 1 16298389093115557700
12892183 10 17458629969640773891
12916748 109 17775291572881237464
12969540 114 17489866033754285005
13544653 18 14345791651786985847
1420 369 11025795383990805288
14251764 30 12174749924445279325
14341114 176 17821449036739879560
14341114 328 17894352184994421721
15183329 4 12823304476637794161
15188451 53 15358274774752823297
1601671 61 18413390921184044712
17980427 23 18259989284386871269
1798214 20 10879992458561816116
1813 80 14345799309772008687
18186145 218 16773797012980642226
18222031 100 13551474765273556954
19050596 39 17603586322175603713
193927 3 11746936460308567034
200 152 9439407929908129558
204376 136 17988923362338668799
20645477 56 17845936341880472798
20645477 70 14692304966775122460
21033648 29 17917419939024439961
21065198 48 17967529069084698763
21250096 35 8070031051429698485
21756936 100 18263359347465609418
22079108 93 17749670800254556138
221357 26 14979959151156605899
22854114 59 16732698372246354938
231179 274 17988925565392880962
23402655 69 14333139554290564995
23403322 49 9007056868417861101
23559900 14 18121225277211037671
26918003 58 10953732318006065843
2838139 119 18342448236141939040
2916195 48 18130499851206904664
3004659 81 11384118535834344276
314173 85 13262393354031173727
3472631 163 18201153364633129572
351380 3 9151170960961000136
38570 142 17025180624989021476
465052 167 11530486610223972128
4921388 177 15625934395975459901
5104073 3 17894349956064716329
54446538 1 18261393390262410180
633830 44 18186800292657367646
7808743 9 18341891956620634756
960060 61 13686301296656416224

>  <PUBCHEM_SHAPE_MULTIPOLES>  (1) 
374.29
12.75
1.98
1.35
0.26
0.34
-0.11
7.87
2.11
-1.93
-0.6
0.8
-0.47
-0.13

>  <PUBCHEM_SHAPE_SELFOVERLAP>  (1) 
769.391

>  <PUBCHEM_SHAPE_VOLUME>  (1) 
215.4

>  <PUBCHEM_COORDINATE_TYPE>  (1) 
2
5
10

$$$$
