49007
     RDKit          3D

 18 19  0  0  1  0  0  0  0  0999 V2000
    0.5022    0.7890   -0.0973 O   0  0  0  0  0  0  0  0  0  0  0  0
    2.0943    2.2136   -0.9311 O   0  0  0  0  0  0  0  0  0  0  0  0
   -2.3025    0.6780   -0.4720 N   0  0  0  0  0  0  0  0  0  0  0  0
   -3.6253    0.1610   -0.1705 C   0  0  0  0  0  0  0  0  0  0  0  0
   -4.2846   -0.5077   -1.3707 C   0  0  0  0  0  0  0  0  0  0  0  0
   -3.5982   -0.9652    0.8558 C   0  0  0  0  0  0  0  0  0  0  0  0
   -5.3999   -1.3441   -0.7493 C   0  0  0  0  0  0  0  0  0  0  0  0
   -4.9569   -1.6400    0.6862 C   0  0  0  0  0  0  0  0  0  0  0  0
   -1.7018    1.2993    0.7021 C   0  0  0  0  0  0  0  0  0  0  0  0
   -0.3278    1.8611    0.3457 C   0  0  0  0  0  0  0  0  0  0  0  0
    0.3283    2.5179    1.5529 C   0  0  0  0  0  0  0  0  0  0  0  0
    1.7800    1.1249   -0.4613 C   0  0  0  0  0  0  0  0  0  0  0  0
    2.7052    0.0177   -0.2151 C   0  0  0  0  0  0  0  0  0  0  0  0
    3.8269   -0.1339   -1.0222 C   0  0  0  0  0  0  0  0  0  0  0  0
    2.4533   -0.8713    0.8236 C   0  0  0  0  0  0  0  0  0  0  0  0
    4.7087   -1.1890   -0.7875 C   0  0  0  0  0  0  0  0  0  0  0  0
    3.3353   -1.9263    1.0581 C   0  0  0  0  0  0  0  0  0  0  0  0
    4.4629   -2.0850    0.2525 C   0  0  0  0  0  0  0  0  0  0  0  0
  1 10  1  0
  1 12  1  0
  2 12  2  0
  3  4  1  0
  3  9  1  0
  4  5  1  0
  4  6  1  0
  5  7  1  0
  6  8  1  0
  7  8  1  0
  9 10  1  0
 10 11  1  0
 12 13  1  0
 13 14  2  0
 13 15  1  0
 14 16  1  0
 15 17  2  0
 16 18  2  0
 17 18  1  0
M  END
>  <PUBCHEM_COMPOUND_CID>  (1) 
49007

>  <PUBCHEM_CONFORMER_RMSD>  (1) 
0.8

>  <PUBCHEM_CONFORMER_DIVERSEORDER>  (1) 
1
33
25
80
53
34
28
19
70
51
60
72
76
89
59
86
85
54
7
27
61
73
4
16
88
24
15
20
93
36
5
30
32
8
83
79
87
18
82
90
37
41
38
29
67
45
65
91
78
43
77
84
17
56
69
35
66
13
55
3
71
50
44
40
57
12
48
47
92
81
42
23
63
49
46
68
9
39
62
74
2
26
22
31
64
10
58
52
75
21
14
6
11

>  <PUBCHEM_MMFF94_PARTIAL_CHARGES>  (1) 
19
1 -0.43
10 0.28
12 0.63
13 0.09
14 -0.15
15 -0.15
16 -0.15
17 -0.15
18 -0.15
2 -0.57
28 0.36
3 -0.9
35 0.15
36 0.15
37 0.15
38 0.15
39 0.15
4 0.27
9 0.27

>  <PUBCHEM_EFFECTIVE_ROTOR_COUNT>  (1) 
7

>  <PUBCHEM_PHARMACOPHORE_FEATURES>  (1) 
5
1 2 acceptor
1 3 cation
1 3 donor
5 4 5 6 7 8 rings
6 13 14 15 16 17 18 rings

>  <PUBCHEM_HEAVY_ATOM_COUNT>  (1) 
18

>  <PUBCHEM_ATOM_DEF_STEREO_COUNT>  (1) 
0

>  <PUBCHEM_ATOM_UDEF_STEREO_COUNT>  (1) 
1

>  <PUBCHEM_BOND_DEF_STEREO_COUNT>  (1) 
0

>  <PUBCHEM_BOND_UDEF_STEREO_COUNT>  (1) 
0

>  <PUBCHEM_ISOTOPIC_ATOM_COUNT>  (1) 
0

>  <PUBCHEM_COMPONENT_COUNT>  (1) 
1

>  <PUBCHEM_CACTVS_TAUTO_COUNT>  (1) 
1

>  <PUBCHEM_CONFORMER_ID>  (1) 
0000BF6F00000001

>  <PUBCHEM_MMFF94_ENERGY>  (1) 
37.245

>  <PUBCHEM_FEATURE_SELFOVERLAP>  (1) 
25.371

>  <PUBCHEM_SHAPE_FINGERPRINT>  (1) 
10447042 23 18335133190067747798
11046707 91 18343021043018586681
11796584 16 18410011005529047415
11806522 49 18408326562616569116
12363563 72 18272374165580759929
12403259 118 10663808664009369751
12553582 1 17989488545579813797
12596602 18 16200426992258552379
12633257 1 17774729765911570903
12824470 246 18338237067963310152
12892183 10 14117525333079547933
13103583 49 17845669109321258179
13533116 47 18127691737586146555
13583140 156 14332850327208880809
13828863 39 14762342826350790018
13887833 79 16443340940746867031
13955234 65 18052822734791492969
14123255 352 9079112254695042307
14178342 30 17059511629466543657
1420 369 18272933816909874127
14251757 17 17603591854331241859
14251764 30 17274834506514603750
14251764 38 11388663981196763702
14576447 43 18333735689451002086
14767858 380 18189354467132809172
14848178 5 18409721837912715450
15163728 17 11170198592420232337
15183329 4 18262509309398311453
15188451 53 16056305224909445575
15342816 4 18336553699172094238
15352361 1 18410011018166256523
15537594 2 18341057435821946607
17834072 32 8574422132326415235
1798214 20 18334572430067437015
18222031 100 17775560953293372053
193927 3 18341621394770721047
200 152 18409170991139866633
20261772 1 17917988382262287638
20281475 54 18410296917296872817
20291156 8 18411981338634066448
20388580 30 18409168822392664556
20403669 9 18341898485013324311
20626108 58 18335412435708414536
20645477 70 18261393394356566605
20671657 53 18260272931831237956
21054139 6 18188215304314766734
21065199 12 12679470798220049757
21250096 35 18341891883468832899
21713013 43 17821443582379469927
221490 88 18114473364934688410
2215653 11 18260819424356152423
22646028 28 18412546483241890510
23403322 49 18408885131555519047
235170 7 16732978734789989847
23559900 14 18115018719003365813
23596394 208 17676198091691257023
270888 7 8214141854534258487
2871803 45 18113336414045376923
3004659 81 18187362116780536183
312423 11 18341063972588227309
314194 84 18272089439234905895
3472631 163 11530773599727953907
351380 3 18343304768816909375
4259306 186 18334574642255266935
44062 13 18335979753949485805
46194498 28 16806173301318244175
465052 167 18200318839729053151
5104073 3 18202003200662677969
559249 180 18268709420875486373
633830 44 11602804784312444913
76465 3 18412260614518962784
7808743 9 9078530621644484810
7970288 3 18272369754423449151
960060 61 17676209069464246054
9841814 1 17560805497429000673

>  <PUBCHEM_SHAPE_MULTIPOLES>  (1) 
353.71
11.83
2.52
1.26
7.21
0.84
-0.06
-9.85
2.1
-0.99
-0.73
0.08
0.07
-0.6

>  <PUBCHEM_SHAPE_SELFOVERLAP>  (1) 
729.565

>  <PUBCHEM_SHAPE_VOLUME>  (1) 
204

>  <PUBCHEM_COORDINATE_TYPE>  (1) 
2
5
10

$$$$
