49000
     RDKit          3D

 20 21  0  0  1  0  0  0  0  0999 V2000
    1.2104    0.8210    0.1042 O   0  0  0  0  0  0  0  0  0  0  0  0
    2.8409    2.1189    1.0613 O   0  0  0  0  0  0  0  0  0  0  0  0
   -3.0452    0.4525   -0.0475 N   0  0  0  0  0  0  0  0  0  0  0  0
   -5.2587   -0.4340    0.6443 C   0  0  0  0  0  0  0  0  0  0  0  0
   -3.8337   -0.0579    1.0841 C   0  0  0  0  0  0  0  0  0  0  0  0
   -5.2183   -1.4486   -0.5037 C   0  0  0  0  0  0  0  0  0  0  0  0
   -4.3293   -0.9413   -1.6341 C   0  0  0  0  0  0  0  0  0  0  0  0
   -2.9452   -0.5472   -1.1191 C   0  0  0  0  0  0  0  0  0  0  0  0
   -1.7127    0.8586    0.3991 C   0  0  0  0  0  0  0  0  0  0  0  0
   -6.0620   -0.9835    1.8216 C   0  0  0  0  0  0  0  0  0  0  0  0
   -0.9374    1.4962   -0.7566 C   0  0  0  0  0  0  0  0  0  0  0  0
    0.4604    1.9531   -0.3267 C   0  0  0  0  0  0  0  0  0  0  0  0
    1.1998    2.6232   -1.4771 C   0  0  0  0  0  0  0  0  0  0  0  0
    2.4887    1.0689    0.5337 C   0  0  0  0  0  0  0  0  0  0  0  0
    3.3625   -0.0771    0.2780 C   0  0  0  0  0  0  0  0  0  0  0  0
    4.4397   -0.3227    1.1218 C   0  0  0  0  0  0  0  0  0  0  0  0
    3.1065   -0.9092   -0.8059 C   0  0  0  0  0  0  0  0  0  0  0  0
    5.2723   -1.4149    0.8784 C   0  0  0  0  0  0  0  0  0  0  0  0
    3.9392   -2.0016   -1.0491 C   0  0  0  0  0  0  0  0  0  0  0  0
    5.0221   -2.2544   -0.2070 C   0  0  0  0  0  0  0  0  0  0  0  0
  1 12  1  0
  1 14  1  0
  2 14  2  0
  3  5  1  0
  3  8  1  0
  3  9  1  0
  4  5  1  0
  4  6  1  0
  4 10  1  0
  6  7  1  0
  7  8  1  0
  9 11  1  0
 11 12  1  0
 12 13  1  0
 14 15  1  0
 15 16  2  0
 15 17  1  0
 16 18  1  0
 17 19  2  0
 18 20  2  0
 19 20  1  0
M  END
>  <PUBCHEM_COMPOUND_CID>  (1) 
49000

>  <PUBCHEM_CONFORMER_RMSD>  (1) 
0.8

>  <PUBCHEM_CONFORMER_DIVERSEORDER>  (1) 
1
341
81
314
122
145
228
289
335
15
140
224
50
175
333
177
46
260
94
273
274
30
157
82
37
246
62
126
104
259
153
124
119
24
233
54
319
251
45
107
196
172
101
334
88
239
89
121
34
47
55
144
43
242
151
147
111
299
7
276
231
301
105
280
243
25
129
303
169
118
336
298
39
300
102
191
313
184
180
234
164
75
171
254
263
178
227
306
4
182
152
221
78
85
114
64
286
165
143
27
278
36
84
18
123
181
266
79
207
183
115
70
226
154
310
261
308
217
199
240
281
330
66
3
35
339
285
166
156
98
155
236
208
13
296
134
41
302
325
130
187
26
158
327
332
179
329
287
138
194
318
202
51
210
68
255
106
116
214
265
248
87
58
141
323
137
241
136
42
69
340
270
316
127
6
76
220
235
338
195
44
33
267
77
315
222
206
257
225
170
291
322
229
252
163
205
142
253
326
133
193
92
275
215
324
100
131
22
258
49
8
174
201
72
232
320
167
93
83
12
256
91
113
213
9
200
288
230
203
149
305
28
73
48
135
309
71
109
61
117
185
304
65
269
317
146
95
19
307
99
204
108
63
38
244
247
59
14
20
86
16
10
271
2
173
188
216
32
112
295
31
186
162
21
268
56
52
282
80
279
67
168
160
337
5
272
161
264
211
176
238
110
297
262
74
223
17
189
245
96
293
148
192
294
125
128
331
53
132
284
60
237
198
159
209
249
321
250
277
97
218
292
311
139
150
23
328
342
90
120
290
11
197
312
29
212
57
40
283
103
190
219

>  <PUBCHEM_MMFF94_PARTIAL_CHARGES>  (1) 
19
1 -0.43
12 0.28
14 0.63
15 0.09
16 -0.15
17 -0.15
18 -0.15
19 -0.15
2 -0.57
20 -0.15
3 -0.81
41 0.15
42 0.15
43 0.15
44 0.15
45 0.15
5 0.27
8 0.27
9 0.27

>  <PUBCHEM_EFFECTIVE_ROTOR_COUNT>  (1) 
7.2

>  <PUBCHEM_PHARMACOPHORE_FEATURES>  (1) 
4
1 2 acceptor
1 3 cation
6 15 16 17 18 19 20 rings
6 3 4 5 6 7 8 rings

>  <PUBCHEM_HEAVY_ATOM_COUNT>  (1) 
20

>  <PUBCHEM_ATOM_DEF_STEREO_COUNT>  (1) 
0

>  <PUBCHEM_ATOM_UDEF_STEREO_COUNT>  (1) 
2

>  <PUBCHEM_BOND_DEF_STEREO_COUNT>  (1) 
0

>  <PUBCHEM_BOND_UDEF_STEREO_COUNT>  (1) 
0

>  <PUBCHEM_ISOTOPIC_ATOM_COUNT>  (1) 
0

>  <PUBCHEM_COMPONENT_COUNT>  (1) 
1

>  <PUBCHEM_CACTVS_TAUTO_COUNT>  (1) 
1

>  <PUBCHEM_CONFORMER_ID>  (1) 
0000BF6800000001

>  <PUBCHEM_MMFF94_ENERGY>  (1) 
41.03

>  <PUBCHEM_FEATURE_SELFOVERLAP>  (1) 
20.297

>  <PUBCHEM_SHAPE_FINGERPRINT>  (1) 
10319926 262 15913059711248642005
10498660 4 9511457818764205103
11128504 68 12468353574865695099
12107183 9 17843979048016719849
12363563 72 18187368705444984644
12403259 118 14404894830318444001
12422481 6 17917441878271022191
12523318 42 15267051610558078807
12596602 18 15984817164345548178
12616971 3 18202283623910210627
12633257 1 16630527349473081913
12892183 10 16917062218707619696
13103583 49 17275385399861549123
13464513 79 18410291402811799426
13533116 47 18272088352935058817
13544653 18 18411697681740480301
13551218 46 18272934908158777383
13583140 156 16558169536873250872
13914758 101 18201716229340916813
13955234 65 18264211498736640552
14123255 352 10447919577307052438
14123256 34 18337398149629761278
1420 369 18412262826443055007
14211702 104 18194124238669070555
14251757 5 12902413320850708633
14251758 9 18271812285623068533
14251764 30 17749113292183279059
14252887 29 18336539508109933816
14341114 176 17489310754686313882
14341114 328 16630242592856345016
15142526 21 16767302395422544432
15188451 53 17489575806172529543
15342816 4 17967811596919175352
15475509 84 17561089059659825056
15537594 2 18272093811585512198
17857418 61 17988635316066990623
17870717 6 16805317800079022235
1813 80 18334299751363324476
193927 3 18260552220917293625
20028762 73 18059850688219586887
20388580 30 17895202107841661884
20403669 9 18408041788519568682
20554085 129 15195294071921126147
20645477 70 17895479249143544993
20693207 138 16878230873976482001
21315764 119 16226595274642066671
22765269 38 11455891330553821587
2767999 5 10303810964821105467
3014063 24 18201990058674766135
312425 54 17561081401843742811
314194 84 18410012164937984960
3421961 26 18412823607828622352
34797466 226 15936701466145815527
351380 3 18409448072386463811
3737641 26 18056202367242074638
4463277 69 18410005546304016772
46194498 28 16805891808734435524
465052 167 18334585649955817971
5104073 3 18130217139437660896
5352402 22 18059574646739501454
5758199 1 17844521318198807784
5924683 9 16630231594141536615
636775 8 17841158754497477790
7064713 232 16917345948289239407
7808743 9 11887086878749152626
7970288 3 18186804655780054163
8863177 126 17822867505814570499
960060 61 15140678089824330377

>  <PUBCHEM_SHAPE_MULTIPOLES>  (1) 
394.87
14.59
2.43
1.49
8.07
0.87
0.03
-11.21
-3.66
-2.5
0.64
1.08
-0.16
0.47

>  <PUBCHEM_SHAPE_SELFOVERLAP>  (1) 
806.435

>  <PUBCHEM_SHAPE_VOLUME>  (1) 
228.1

>  <PUBCHEM_COORDINATE_TYPE>  (1) 
2
5
10

$$$$
