49005
     RDKit          3D

 19 20  0  0  0  0  0  0  0  0999 V2000
    0.6513   -0.6819    0.1795 O   0  0  0  0  0  0  0  0  0  0  0  0
    2.2248   -2.1593   -0.5958 O   0  0  0  0  0  0  0  0  0  0  0  0
   -2.1011    0.0576   -0.2511 N   0  0  0  0  0  0  0  0  0  0  0  0
   -3.3230    0.6383    0.2758 C   0  0  0  0  0  0  0  0  0  0  0  0
   -3.8171    1.8207   -0.5489 C   0  0  0  0  0  0  0  0  0  0  0  0
   -4.5062   -0.3200    0.2128 C   0  0  0  0  0  0  0  0  0  0  0  0
   -5.2742    1.9745   -0.1209 C   0  0  0  0  0  0  0  0  0  0  0  0
   -5.7188    0.5937    0.3694 C   0  0  0  0  0  0  0  0  0  0  0  0
   -1.6674   -1.0753    0.5575 C   0  0  0  0  0  0  0  0  0  0  0  0
   -0.3443   -1.7093    0.0895 C   0  0  0  0  0  0  0  0  0  0  0  0
    0.0892   -2.8619    1.0000 C   0  0  0  0  0  0  0  0  0  0  0  0
   -0.4070   -2.1712   -1.3692 C   0  0  0  0  0  0  0  0  0  0  0  0
    1.9156   -1.0408   -0.1984 C   0  0  0  0  0  0  0  0  0  0  0  0
    2.8384    0.0872   -0.0622 C   0  0  0  0  0  0  0  0  0  0  0  0
    4.1778   -0.1507    0.2237 C   0  0  0  0  0  0  0  0  0  0  0  0
    2.3665    1.3852   -0.2203 C   0  0  0  0  0  0  0  0  0  0  0  0
    5.0575    0.9240    0.3534 C   0  0  0  0  0  0  0  0  0  0  0  0
    3.2462    2.4600   -0.0907 C   0  0  0  0  0  0  0  0  0  0  0  0
    4.5918    2.2293    0.1961 C   0  0  0  0  0  0  0  0  0  0  0  0
  1 10  1  0
  1 13  1  0
  2 13  2  0
  3  4  1  0
  3  9  1  0
  4  5  1  0
  4  6  1  0
  5  7  1  0
  6  8  1  0
  7  8  1  0
  9 10  1  0
 10 11  1  0
 10 12  1  0
 13 14  1  0
 14 15  2  0
 14 16  1  0
 15 17  1  0
 16 18  2  0
 17 19  2  0
 18 19  1  0
M  END
>  <PUBCHEM_COMPOUND_CID>  (1) 
49005

>  <PUBCHEM_CONFORMER_RMSD>  (1) 
0.8

>  <PUBCHEM_CONFORMER_DIVERSEORDER>  (1) 
7
16
60
44
58
22
14
59
20
5
10
51
47
57
48
61
36
31
9
21
33
27
15
34
55
46
43
39
26
52
2
42
18
56
19
23
38
24
17
54
25
12
53
50
45
41
40
6
49
28
35
32
30
4
1
13
29
11
3
8
37

>  <PUBCHEM_MMFF94_PARTIAL_CHARGES>  (1) 
19
1 -0.43
10 0.28
13 0.63
14 0.09
15 -0.15
16 -0.15
17 -0.15
18 -0.15
19 -0.15
2 -0.57
29 0.36
3 -0.9
38 0.15
39 0.15
4 0.27
40 0.15
41 0.15
42 0.15
9 0.27

>  <PUBCHEM_EFFECTIVE_ROTOR_COUNT>  (1) 
7

>  <PUBCHEM_PHARMACOPHORE_FEATURES>  (1) 
6
1 2 acceptor
1 3 cation
1 3 donor
3 10 11 12 hydrophobe
5 4 5 6 7 8 rings
6 14 15 16 17 18 19 rings

>  <PUBCHEM_HEAVY_ATOM_COUNT>  (1) 
19

>  <PUBCHEM_ATOM_DEF_STEREO_COUNT>  (1) 
0

>  <PUBCHEM_ATOM_UDEF_STEREO_COUNT>  (1) 
0

>  <PUBCHEM_BOND_DEF_STEREO_COUNT>  (1) 
0

>  <PUBCHEM_BOND_UDEF_STEREO_COUNT>  (1) 
0

>  <PUBCHEM_ISOTOPIC_ATOM_COUNT>  (1) 
0

>  <PUBCHEM_COMPONENT_COUNT>  (1) 
1

>  <PUBCHEM_CACTVS_TAUTO_COUNT>  (1) 
1

>  <PUBCHEM_CONFORMER_ID>  (1) 
0000BF6D00000007

>  <PUBCHEM_MMFF94_ENERGY>  (1) 
48.5721

>  <PUBCHEM_FEATURE_SELFOVERLAP>  (1) 
30.446

>  <PUBCHEM_SHAPE_FINGERPRINT>  (1) 
10411042 1 17618504277078421190
12107183 9 18261660516359826210
122479 349 18337111271351810802
12403259 415 18114745924007692141
12596602 18 14635163334136239837
12633257 1 15864076498222262293
12769317 202 18340758265416497897
12788726 201 16665460087707350715
13103583 49 12468637175846092357
13402501 40 18335419062790704829
13785724 45 17904476304039584938
13955234 65 18118125767028333451
14123255 52 18410009952876853251
14251764 30 12396569699030836104
14251764 38 18338804424743380017
14576447 43 9871477530240512656
14787075 74 18341048618649421227
15188451 53 15647627778040737673
15196674 1 18410292531702610321
15238133 3 18186805807643146196
17810953 82 18410015411860025020
17834072 32 18338799017410793376
20281475 54 9295300455709926118
20567600 254 18187638107479492933
20621476 66 18338238275630082244
21421861 104 17677594438058923272
21452121 103 18336263448917814522
21475661 188 18333450936818113108
21524375 3 18412263951830091931
22620623 9 16486116478816673271
22950370 63 9511465541194427057
23227448 37 18341049722102595127
23402655 69 18131912650296243503
23558518 356 18043252550954599146
23559900 14 18122060897732506219
245318 6 17606417693461846437
2838139 119 18413100675778419293
2916195 48 18341046401797606089
335352 9 18410856556299682710
351380 180 18407759231221441089
351380 3 10737284649416821049
38570 142 16734418069137012732
4325135 7 18343580768390526855
43658 37 18343580763193407817
465052 167 11025799781926560096
474 4 18411138013442350795
5104073 3 18260828215278384650
59682541 52 16988296278531387628
59755656 520 18259981604352790614
6328613 192 18261964046147075916
633830 44 18411413969502644023
77188 2 17399228651486222347
7808743 9 18192430985944634096
83771 10 9007060162257032459
960060 61 11527942378592066041

>  <PUBCHEM_SHAPE_MULTIPOLES>  (1) 
374.29
12.08
3
0.84
7.11
0.57
-0.09
-9.97
1.1
-0.93
-0.09
0.11
0.38
0.4

>  <PUBCHEM_SHAPE_SELFOVERLAP>  (1) 
775.593

>  <PUBCHEM_SHAPE_VOLUME>  (1) 
215

>  <PUBCHEM_COORDINATE_TYPE>  (1) 
2
5
10

$$$$
