49013
     RDKit          3D

 26 28  0  0  0  0  0  0  0  0999 V2000
    1.5422    0.4236    1.2240 O   0  0  0  0  0  0  0  0  0  0  0  0
    3.2880   -0.2688    2.5552 O   0  0  0  0  0  0  0  0  0  0  0  0
   -1.2461    0.0300    0.9255 N   0  0  0  0  0  0  0  0  0  0  0  0
   -2.5507    0.4984    0.4593 C   0  0  0  0  0  0  0  0  0  0  0  0
   -1.3605   -1.3081    1.5044 C   0  0  0  0  0  0  0  0  0  0  0  0
   -0.6870    0.9636    1.9025 C   0  0  0  0  0  0  0  0  0  0  0  0
   -2.4694    1.8757   -0.1437 C   0  0  0  0  0  0  0  0  0  0  0  0
   -1.8771   -2.3092    0.5056 C   0  0  0  0  0  0  0  0  0  0  0  0
    0.6888    0.5038    2.3580 C   0  0  0  0  0  0  0  0  0  0  0  0
   -2.6445    2.9881    0.6676 C   0  0  0  0  0  0  0  0  0  0  0  0
   -3.2446   -2.5188    0.3929 C   0  0  0  0  0  0  0  0  0  0  0  0
   -2.2201    2.0133   -1.5020 C   0  0  0  0  0  0  0  0  0  0  0  0
   -0.9789   -3.0080   -0.2889 C   0  0  0  0  0  0  0  0  0  0  0  0
   -2.5691    4.2641    0.1091 C   0  0  0  0  0  0  0  0  0  0  0  0
   -3.7233   -3.4461   -0.5326 C   0  0  0  0  0  0  0  0  0  0  0  0
   -2.1446    3.2893   -2.0604 C   0  0  0  0  0  0  0  0  0  0  0  0
   -1.4579   -3.9352   -1.2144 C   0  0  0  0  0  0  0  0  0  0  0  0
   -2.3191    4.4147   -1.2548 C   0  0  0  0  0  0  0  0  0  0  0  0
   -2.8302   -4.1542   -1.3363 C   0  0  0  0  0  0  0  0  0  0  0  0
    2.8211    0.0226    1.4651 C   0  0  0  0  0  0  0  0  0  0  0  0
    3.6062   -0.0184    0.2056 C   0  0  0  0  0  0  0  0  0  0  0  0
    4.9641    0.2211    0.2581 C   0  0  0  0  0  0  0  0  0  0  0  0
    2.9537   -0.2951   -0.9784 C   0  0  0  0  0  0  0  0  0  0  0  0
    5.7018    0.1824   -0.9250 C   0  0  0  0  0  0  0  0  0  0  0  0
    3.6916   -0.3339   -2.1616 C   0  0  0  0  0  0  0  0  0  0  0  0
    5.0656   -0.0951   -2.1348 C   0  0  0  0  0  0  0  0  0  0  0  0
  1  9  1  0
  1 20  1  0
  2 20  2  0
  3  4  1  0
  3  5  1  0
  3  6  1  0
  4  7  1  0
  5  8  1  0
  6  9  1  0
  7 10  2  0
  7 12  1  0
  8 11  2  0
  8 13  1  0
 10 14  1  0
 11 15  1  0
 12 16  2  0
 13 17  2  0
 14 18  2  0
 15 19  2  0
 16 18  1  0
 17 19  1  0
 20 21  1  0
 21 22  2  0
 21 23  1  0
 22 24  1  0
 23 25  2  0
 24 26  2  0
 25 26  1  0
M  END
>  <PUBCHEM_COMPOUND_CID>  (1) 
49013

>  <PUBCHEM_CONFORMER_RMSD>  (1) 
1

>  <PUBCHEM_CONFORMER_DIVERSEORDER>  (1) 
2
39
28
93
73
17
38
40
65
64
83
48
53
91
87
75
7
68
79
4
12
80
42
5
13
19
56
41
11
23
72
78
67
60
77
44
18
50
89
55
94
34
24
3
33
82
69
37
58
35
45
59
10
74
52
31
21
8
16
22
14
90
63
70
76
47
1
30
57
32
49
84
62
81
6
29
15
43
61
54
88
46
51
92
20
25
86
27
26
71
66
36
85
9

>  <PUBCHEM_MMFF94_PARTIAL_CHARGES>  (1) 
41
1 -0.43
10 -0.15
11 -0.15
12 -0.15
13 -0.15
14 -0.15
15 -0.15
16 -0.15
17 -0.15
18 -0.15
19 -0.15
2 -0.57
20 0.63
21 0.09
22 -0.15
23 -0.15
24 -0.15
25 -0.15
26 -0.15
3 -0.81
35 0.15
36 0.15
37 0.15
38 0.15
39 0.15
4 0.41
40 0.15
41 0.15
42 0.15
43 0.15
44 0.15
45 0.15
46 0.15
47 0.15
48 0.15
49 0.15
5 0.41
6 0.27
7 -0.14
8 -0.14
9 0.28

>  <PUBCHEM_EFFECTIVE_ROTOR_COUNT>  (1) 
9

>  <PUBCHEM_PHARMACOPHORE_FEATURES>  (1) 
5
1 2 acceptor
1 3 cation
6 21 22 23 24 25 26 rings
6 7 10 12 14 16 18 rings
6 8 11 13 15 17 19 rings

>  <PUBCHEM_HEAVY_ATOM_COUNT>  (1) 
26

>  <PUBCHEM_ATOM_DEF_STEREO_COUNT>  (1) 
0

>  <PUBCHEM_ATOM_UDEF_STEREO_COUNT>  (1) 
0

>  <PUBCHEM_BOND_DEF_STEREO_COUNT>  (1) 
0

>  <PUBCHEM_BOND_UDEF_STEREO_COUNT>  (1) 
0

>  <PUBCHEM_ISOTOPIC_ATOM_COUNT>  (1) 
0

>  <PUBCHEM_COMPONENT_COUNT>  (1) 
1

>  <PUBCHEM_CACTVS_TAUTO_COUNT>  (1) 
1

>  <PUBCHEM_CONFORMER_ID>  (1) 
0000BF7500000002

>  <PUBCHEM_MMFF94_ENERGY>  (1) 
80.7478

>  <PUBCHEM_FEATURE_SELFOVERLAP>  (1) 
25.373

>  <PUBCHEM_SHAPE_FINGERPRINT>  (1) 
10165383 225 18126870212920737033
105312 117 18267026059609049380
11049842 53 17762886672259017906
11477941 20 18118143565525620164
11488393 25 16460248491840490082
12160290 23 18408880729076794049
12788726 201 18187356662377948131
13004483 165 18193572270408019949
13402501 40 17417265354256536790
13681431 1 17543059538917892403
13690498 29 18339653334077713638
14910302 57 18201722881353909506
14955137 171 18047767163590059179
15163728 17 17975702679559599909
15463212 79 18187365411352599680
15475509 35 12314323063940933813
15664445 248 17617937379891188744
15961568 22 17834670870608100512
1813 80 18049436251894356683
20693207 138 17917717945767706746
21033650 10 18262250962651528738
21421566 26 18337117872600350821
22907989 373 18335128796131217535
26353 1 18048594021470330029
3057174 1 17834380238480936117
312425 83 18190486903884807278
4394409 98 17691418408302447958
5081480 168 17611161039028381503
508180 173 14493799055755102618
6438718 38 17895493426978282396
6786 2 18050291366997581647

>  <PUBCHEM_SHAPE_MULTIPOLES>  (1) 
518.35
9.33
5.92
2.35
16.64
0.47
0.33
-0.65
-3.56
-12.18
-3.35
1.53
0.49
0.3

>  <PUBCHEM_SHAPE_SELFOVERLAP>  (1) 
1110.259

>  <PUBCHEM_SHAPE_VOLUME>  (1) 
286.1

>  <PUBCHEM_COORDINATE_TYPE>  (1) 
2
5
10

$$$$
