49014
     RDKit          3D

 24 24  0  0  0  0  0  0  0  0999 V2000
    0.0044   -2.5416    1.2008 I   0  0  0  0  0  0  0  0  0  0  0  0
    3.0459    2.6221    0.0338 I   0  0  0  0  0  0  0  0  0  0  0  0
   -3.0625    2.6074    0.0352 I   0  0  0  0  0  0  0  0  0  0  0  0
   -2.8903   -1.2191   -1.4451 O   0  0  0  0  0  0  0  0  0  0  0  0
    2.8817   -1.2465   -1.4371 O   0  0  0  0  0  0  0  0  0  0  0  0
   -0.0103    3.9064   -1.5484 O   0  0  0  0  0  0  0  0  0  0  0  0
   -0.0133    4.5968    0.6172 O   0  0  0  0  0  0  0  0  0  0  0  0
   -2.4229   -0.4730    0.7315 N   0  0  0  0  0  0  0  0  0  0  0  0
    2.4216   -0.4613    0.7304 N   0  0  0  0  0  0  0  0  0  0  0  0
   -1.1992    0.2204    0.5746 C   0  0  0  0  0  0  0  0  0  0  0  0
    1.2056    0.2200    0.5757 C   0  0  0  0  0  0  0  0  0  0  0  0
   -0.0007   -0.4632    0.7298 C   0  0  0  0  0  0  0  0  0  0  0  0
   -4.4167   -1.7482    0.3450 C   0  0  0  0  0  0  0  0  0  0  0  0
    4.4325   -1.7329    0.3440 C   0  0  0  0  0  0  0  0  0  0  0  0
   -0.0075    2.2578    0.1144 C   0  0  0  0  0  0  0  0  0  0  0  0
    1.2022    1.5805    0.2680 C   0  0  0  0  0  0  0  0  0  0  0  0
   -1.2137    1.5746    0.2683 C   0  0  0  0  0  0  0  0  0  0  0  0
   -5.2813   -2.4928   -0.6697 C   0  0  0  0  0  0  0  0  0  0  0  0
    5.3002   -2.4732   -0.6713 C   0  0  0  0  0  0  0  0  0  0  0  0
   -3.1565   -1.1324   -0.2509 C   0  0  0  0  0  0  0  0  0  0  0  0
    3.1690   -1.1231   -0.2512 C   0  0  0  0  0  0  0  0  0  0  0  0
   -6.5302   -3.0957   -0.0418 C   0  0  0  0  0  0  0  0  0  0  0  0
    6.5531   -3.0687   -0.0444 C   0  0  0  0  0  0  0  0  0  0  0  0
   -0.0110    3.6855   -0.2088 C   0  0  0  0  0  0  0  0  0  0  0  0
  1 12  1  0
  2 16  1  0
  3 17  1  0
  4 20  2  0
  5 21  2  0
  6 24  1  0
  7 24  2  0
  8 10  1  0
  8 20  1  0
  9 11  1  0
  9 21  1  0
 10 12  2  0
 10 17  1  0
 11 12  1  0
 11 16  2  0
 13 18  1  0
 13 20  1  0
 14 19  1  0
 14 21  1  0
 15 16  1  0
 15 17  2  0
 15 24  1  0
 18 22  1  0
 19 23  1  0
M  END
>  <PUBCHEM_COMPOUND_CID>  (1) 
49014

>  <PUBCHEM_CONFORMER_RMSD>  (1) 
1

>  <PUBCHEM_CONFORMER_DIVERSEORDER>  (1) 
1
2
6
3
4
5
8
7

>  <PUBCHEM_MMFF94_PARTIAL_CHARGES>  (1) 
23
1 -0.08
10 0.12
11 0.12
12 0.08
13 0.06
14 0.06
15 0.09
16 0.08
17 0.08
2 -0.08
20 0.57
21 0.57
24 0.63
3 -0.08
33 0.37
34 0.37
4 -0.57
41 0.5
5 -0.57
6 -0.65
7 -0.57
8 -0.55
9 -0.55

>  <PUBCHEM_EFFECTIVE_ROTOR_COUNT>  (1) 
9

>  <PUBCHEM_PHARMACOPHORE_FEATURES>  (1) 
13
1 1 hydrophobe
1 2 hydrophobe
1 22 hydrophobe
1 23 hydrophobe
1 3 hydrophobe
1 4 acceptor
1 5 acceptor
1 6 acceptor
1 7 acceptor
1 8 donor
1 9 donor
3 6 7 24 anion
6 10 11 12 15 16 17 rings

>  <PUBCHEM_HEAVY_ATOM_COUNT>  (1) 
24

>  <PUBCHEM_ATOM_DEF_STEREO_COUNT>  (1) 
0

>  <PUBCHEM_ATOM_UDEF_STEREO_COUNT>  (1) 
0

>  <PUBCHEM_BOND_DEF_STEREO_COUNT>  (1) 
0

>  <PUBCHEM_BOND_UDEF_STEREO_COUNT>  (1) 
0

>  <PUBCHEM_ISOTOPIC_ATOM_COUNT>  (1) 
0

>  <PUBCHEM_COMPONENT_COUNT>  (1) 
1

>  <PUBCHEM_CACTVS_TAUTO_COUNT>  (1) 
3

>  <PUBCHEM_CONFORMER_ID>  (1) 
0000BF7600000001

>  <PUBCHEM_MMFF94_ENERGY>  (1) 
106.4885

>  <PUBCHEM_FEATURE_SELFOVERLAP>  (1) 
66.031

>  <PUBCHEM_SHAPE_FINGERPRINT>  (1) 
10050765 1 18411699885085382321
10411042 1 18411138038917177683
10693767 8 18269826674697476319
1100329 8 18265899064174732377
12107183 9 18271257041109911179
12166972 35 17967255299517278862
12403259 226 18340484478963581432
12403259 327 15123510371588731063
12553582 1 18262795160012987739
13009979 54 18131360721635196739
13140716 1 18410010992259556489
13540713 4 18340749494998515969
13540713 5 18340787990785147760
13955234 65 17981328112244398865
14508225 48 18408600336279061932
14790565 3 17905902370378359712
15042514 8 18267869389148259177
16087824 20 18121500143045846041
16945 1 18047746005716105912
17492 89 18340485677169967779
17539 30 18265330603804260588
1813 80 18271255992357259727
20645477 70 18120366816749482963
20775438 99 17762884864242478727
22311459 1 18121500141948067680
2334 1 18335984250200437641
23402539 116 18264210210636464902
23419403 2 17702358750344823864
23557571 272 17840868469993098652
23559900 14 18268702819589939048
255183 451 18412830213156014534
2748010 2 18335137596192848040
283562 15 18262800653693150522
352729 6 16678931914071905689
46194498 28 17678729270906884797
59755656 215 18120654896884890853
59755656 520 17194612845345961096
70251023 43 18409730651560153530
77188 2 18411981390126746936
7970288 3 18412261748523386535

>  <PUBCHEM_SHAPE_MULTIPOLES>  (1) 
496.28
11.29
5.79
1.08
0.19
4.46
-0.14
-17.81
-2.53
-0.06
-0.46
0
-0.17
0

>  <PUBCHEM_SHAPE_SELFOVERLAP>  (1) 
951.108

>  <PUBCHEM_SHAPE_VOLUME>  (1) 
312

>  <PUBCHEM_COORDINATE_TYPE>  (1) 
2
5
10

$$$$
