49029
     RDKit          3D

 21 21  0  0  0  0  0  0  0  0999 V2000
    3.9325   -0.0357    0.9141 O   0  0  0  0  0  0  0  0  0  0  0  0
   -2.2196    0.4884   -0.0225 O   0  0  0  0  0  0  0  0  0  0  0  0
   -1.6543    2.5879   -0.7786 O   0  0  0  0  0  0  0  0  0  0  0  0
   -6.6693   -1.4296    0.2347 N   0  0  0  0  0  0  0  0  0  0  0  0
   -4.4202   -0.4725    0.0899 C   0  0  0  0  0  0  0  0  0  0  0  0
   -5.9085   -0.2501   -0.1594 C   0  0  0  0  0  0  0  0  0  0  0  0
   -3.6006    0.7527   -0.2923 C   0  0  0  0  0  0  0  0  0  0  0  0
    5.9466   -1.0448    0.1031 C   0  0  0  0  0  0  0  0  0  0  0  0
    4.4362   -1.1782    0.2361 C   0  0  0  0  0  0  0  0  0  0  0  0
    6.5549   -2.2352   -0.6328 C   0  0  0  0  0  0  0  0  0  0  0  0
    2.6519    0.3485    0.6114 C   0  0  0  0  0  0  0  0  0  0  0  0
    2.3929    1.6135    0.0836 C   0  0  0  0  0  0  0  0  0  0  0  0
    0.0337    1.0986    0.0076 C   0  0  0  0  0  0  0  0  0  0  0  0
    1.0838    1.9884   -0.2184 C   0  0  0  0  0  0  0  0  0  0  0  0
   -8.0545   -1.0704    0.5437 C   0  0  0  0  0  0  0  0  0  0  0  0
   -6.6314   -2.4439   -0.8203 C   0  0  0  0  0  0  0  0  0  0  0  0
    1.6018   -0.5414    0.8373 C   0  0  0  0  0  0  0  0  0  0  0  0
    0.2927   -0.1663    0.5355 C   0  0  0  0  0  0  0  0  0  0  0  0
   -1.3311    1.4888   -0.3083 C   0  0  0  0  0  0  0  0  0  0  0  0
    8.0575   -2.0774   -0.8015 C   0  0  0  0  0  0  0  0  0  0  0  0
    3.5048    2.5788   -0.1631 C   0  0  0  0  0  0  0  0  0  0  0  0
  1  9  1  0
  1 11  1  0
  2  7  1  0
  2 19  1  0
  3 19  2  0
  4  6  1  0
  4 15  1  0
  4 16  1  0
  5  6  1  0
  5  7  1  0
  8  9  1  0
  8 10  1  0
 10 20  1  0
 11 12  2  0
 11 17  1  0
 12 14  1  0
 12 21  1  0
 13 14  2  0
 13 18  1  0
 13 19  1  0
 17 18  2  0
M  END
>  <PUBCHEM_COMPOUND_CID>  (1) 
49029

>  <PUBCHEM_CONFORMER_RMSD>  (1) 
1

>  <PUBCHEM_CONFORMER_DIVERSEORDER>  (1) 
1
61
56
34
108
39
32
48
97
109
49
110
78
83
99
81
45
105
13
75
62
102
79
69
95
86
96
27
100
59
107
30
115
64
28
43
92
80
65
52
88
53
70
91
40
116
117
87
33
73
29
82
3
20
23
93
76
6
113
106
90
46
22
50
84
15
35
11
4
67
19
7
94
38
72
41
9
85
31
10
111
114
36
44
103
63
37
60
18
17
101
58
74
14
98
51
12
5
55
26
89
77
25
66
21
104
2
68
42
24
8
71
112
16
54
47
57

>  <PUBCHEM_MMFF94_PARTIAL_CHARGES>  (1) 
20
1 -0.36
11 0.08
12 -0.14
13 0.09
14 -0.15
15 0.27
16 0.27
17 -0.15
18 -0.15
19 0.63
2 -0.43
21 0.14
3 -0.57
34 0.15
4 -0.81
41 0.15
42 0.15
6 0.27
7 0.28
9 0.28

>  <PUBCHEM_EFFECTIVE_ROTOR_COUNT>  (1) 
10

>  <PUBCHEM_PHARMACOPHORE_FEATURES>  (1) 
5
1 1 acceptor
1 20 hydrophobe
1 3 acceptor
1 4 cation
6 11 12 13 14 17 18 rings

>  <PUBCHEM_HEAVY_ATOM_COUNT>  (1) 
21

>  <PUBCHEM_ATOM_DEF_STEREO_COUNT>  (1) 
0

>  <PUBCHEM_ATOM_UDEF_STEREO_COUNT>  (1) 
0

>  <PUBCHEM_BOND_DEF_STEREO_COUNT>  (1) 
0

>  <PUBCHEM_BOND_UDEF_STEREO_COUNT>  (1) 
0

>  <PUBCHEM_ISOTOPIC_ATOM_COUNT>  (1) 
0

>  <PUBCHEM_COMPONENT_COUNT>  (1) 
1

>  <PUBCHEM_CACTVS_TAUTO_COUNT>  (1) 
1

>  <PUBCHEM_CONFORMER_ID>  (1) 
0000BF8500000001

>  <PUBCHEM_MMFF94_ENERGY>  (1) 
50.6782

>  <PUBCHEM_FEATURE_SELFOVERLAP>  (1) 
25.371

>  <PUBCHEM_SHAPE_FINGERPRINT>  (1) 
10 15 13758070818194342267
10411042 1 18410575051021375960
10740516 88 18059027090029153878
12236239 1 18271245028007203969
13533116 47 18341893042967981057
13668630 136 18334290990109990723
13673619 4 18342175553026385712
13685833 64 18342457032508949642
13690498 29 18187641367132973765
13862211 1 18260825952484740458
14123256 34 18408041814684868467
14350574 20 18334011675121865796
14556957 393 16298680373233620087
14729087 3 9007054664894260707
14931854 50 17531241725607173099
15048467 5 8718823189299155190
18335252 98 18343019970469161894
19784866 240 18343305838342692392
20028762 73 18413668023852724211
20281389 69 11383848073554609939
20645477 70 18261105300856631225
21049683 271 18413110563943595640
21095086 4 17773045151137669774
21150785 3 15357700790347974827
21267235 1 18408044005059887817
21304304 249 18413108381493392447
21403212 168 8502370015415904982
23522609 53 18121250668857685988
23559900 14 17968097572457499792
246663 6 18343867697348299918
255183 451 18409171008932127236
3004659 81 17967527991369595697
465052 167 18342740740615310509
5104073 3 13901035926040298498
54039377 194 18341615901961431782
543368 44 8430321238882908727
636775 8 18272097042250504742
9995097 26 18412268329145669294

>  <PUBCHEM_SHAPE_MULTIPOLES>  (1) 
409.58
21.7
2.78
0.84
13.14
0.39
-0.01
-23.2
2.49
-1.85
0.8
-0.19
-0.13
0.7

>  <PUBCHEM_SHAPE_SELFOVERLAP>  (1) 
813.9

>  <PUBCHEM_SHAPE_VOLUME>  (1) 
246

>  <PUBCHEM_COORDINATE_TYPE>  (1) 
2
5
10

$$$$
