49020
     RDKit          3D

 22 23  0  0  1  0  0  0  0  0999 V2000
   -0.8880    0.7312   -0.0097 O   0  0  0  0  0  0  0  0  0  0  0  0
    4.7488   -1.9361    0.0881 O   0  0  0  0  0  0  0  0  0  0  0  0
   -0.4768   -0.7760   -1.6886 O   0  0  0  0  0  0  0  0  0  0  0  0
   -0.7439    3.5886    0.3466 N   0  0  0  0  0  0  0  0  0  0  0  0
    0.2738    1.4662   -0.3921 C   0  0  0  0  0  0  0  0  0  0  0  0
    0.4230    2.7174    0.4821 C   0  0  0  0  0  0  0  0  0  0  0  0
    1.4740    0.5540   -0.2632 C   0  0  0  0  0  0  0  0  0  0  0  0
    2.1953    0.2222   -1.3968 C   0  0  0  0  0  0  0  0  0  0  0  0
    1.8244    0.0709    0.9857 C   0  0  0  0  0  0  0  0  0  0  0  0
   -0.8872    4.0392   -1.0372 C   0  0  0  0  0  0  0  0  0  0  0  0
   -0.6336    4.7346    1.2486 C   0  0  0  0  0  0  0  0  0  0  0  0
    3.3015   -0.6190   -1.2779 C   0  0  0  0  0  0  0  0  0  0  0  0
    2.9307   -0.7702    1.1047 C   0  0  0  0  0  0  0  0  0  0  0  0
    3.6695   -1.1151   -0.0272 C   0  0  0  0  0  0  0  0  0  0  0  0
   -1.1625   -0.3905   -0.7473 C   0  0  0  0  0  0  0  0  0  0  0  0
   -2.3730   -1.0551   -0.2621 C   0  0  0  0  0  0  0  0  0  0  0  0
   -2.5003   -2.4332   -0.3924 C   0  0  0  0  0  0  0  0  0  0  0  0
   -3.3832   -0.3017    0.3248 C   0  0  0  0  0  0  0  0  0  0  0  0
   -3.6536   -3.0668    0.0703 C   0  0  0  0  0  0  0  0  0  0  0  0
   -4.5366   -0.9353    0.7874 C   0  0  0  0  0  0  0  0  0  0  0  0
   -4.6718   -2.3179    0.6601 C   0  0  0  0  0  0  0  0  0  0  0  0
    5.0694   -2.4074    1.3961 C   0  0  0  0  0  0  0  0  0  0  0  0
  1  5  1  0
  1 15  1  0
  2 14  1  0
  2 22  1  0
  3 15  2  0
  4  6  1  0
  4 10  1  0
  4 11  1  0
  5  6  1  0
  5  7  1  0
  7  8  2  0
  7  9  1  0
  8 12  1  0
  9 13  2  0
 12 14  2  0
 13 14  1  0
 15 16  1  0
 16 17  2  0
 16 18  1  0
 17 19  1  0
 18 20  2  0
 19 21  2  0
 20 21  1  0
M  END
>  <PUBCHEM_COMPOUND_CID>  (1) 
49020

>  <PUBCHEM_CONFORMER_RMSD>  (1) 
0.8

>  <PUBCHEM_CONFORMER_DIVERSEORDER>  (1) 
1
7
41
5
38
16
28
29
24
34
15
33
20
21
18
3
19
23
11
22
37
30
31
39
35
17
14
12
4
32
27
26
2
8
9
10
36
13
25
40
6

>  <PUBCHEM_MMFF94_PARTIAL_CHARGES>  (1) 
31
1 -0.43
10 0.27
11 0.27
12 -0.15
13 -0.15
14 0.08
15 0.63
16 0.09
17 -0.15
18 -0.15
19 -0.15
2 -0.36
20 -0.15
21 -0.15
22 0.28
26 0.15
27 0.15
3 -0.57
34 0.15
35 0.15
36 0.15
37 0.15
38 0.15
39 0.15
4 -0.81
40 0.15
5 0.42
6 0.27
7 -0.14
8 -0.15
9 -0.15

>  <PUBCHEM_EFFECTIVE_ROTOR_COUNT>  (1) 
7

>  <PUBCHEM_PHARMACOPHORE_FEATURES>  (1) 
5
1 2 acceptor
1 3 acceptor
1 4 cation
6 16 17 18 19 20 21 rings
6 7 8 9 12 13 14 rings

>  <PUBCHEM_HEAVY_ATOM_COUNT>  (1) 
22

>  <PUBCHEM_ATOM_DEF_STEREO_COUNT>  (1) 
0

>  <PUBCHEM_ATOM_UDEF_STEREO_COUNT>  (1) 
1

>  <PUBCHEM_BOND_DEF_STEREO_COUNT>  (1) 
0

>  <PUBCHEM_BOND_UDEF_STEREO_COUNT>  (1) 
0

>  <PUBCHEM_ISOTOPIC_ATOM_COUNT>  (1) 
0

>  <PUBCHEM_COMPONENT_COUNT>  (1) 
1

>  <PUBCHEM_CACTVS_TAUTO_COUNT>  (1) 
1

>  <PUBCHEM_CONFORMER_ID>  (1) 
0000BF7C00000001

>  <PUBCHEM_MMFF94_ENERGY>  (1) 
77.01

>  <PUBCHEM_FEATURE_SELFOVERLAP>  (1) 
25.371

>  <PUBCHEM_SHAPE_FINGERPRINT>  (1) 
10074138 170 18051962637182560024
11578080 2 17823395240867168357
12107183 9 18340780299379312235
12403259 226 18263923401410177479
12553582 1 18412826918958309470
12633257 1 18342190989745625755
12643181 29 17474671647128835862
12714826 92 17967802847733248679
12788726 201 18337126570172830278
13004483 165 18411135827066685272
13052359 8 18048877399044329981
13140716 1 18413107247199837785
13533116 47 17975135654552789363
13955234 65 17763189433415556563
14178342 30 18120652427684857998
14787075 74 18042963362732978928
14844126 61 18264758866448069930
14866123 147 17906453221170907883
14955137 171 17910680087729277840
15042514 8 18338520716467538593
15163728 17 9511191805606943874
15475509 35 17608955401396937531
15842332 3 17897468111554858564
15885798 251 18411705387048744891
17349148 13 17774729778954936071
17868525 174 18338802337995558841
1813 80 18341902929898059863
19784866 135 18338511933185663058
20600515 1 18131362903272977713
20832881 197 18260830423403537091
21033648 29 16701752578912660323
21756936 100 13541030603791369874
2255824 54 17905050609468954085
22950370 63 18336553788791835810
23366157 5 17904205081006507685
23559900 14 18055360394959444199
23598288 3 18269270171636776148
266924 1 18115610191887419356
3057174 1 9743228337175358785
3091708 16 8992254151662711385
31174 14 18048873289007917679
314173 41 18266753543670530063
3380486 145 17843087494173188236
3421961 26 18266740366605033115
345986 75 18115012022595645915
3759504 43 17834668297653521964
394222 165 17337885167147828481
4409770 3 18118115880045051733
463206 1 18260546766098838714
474 4 17254271749279266157
5104073 3 18056495069753836467
7097593 13 18125438867777140575
7364860 26 17838062855009786941
7970288 3 18334855026174121986
79837 15 17692818081834378920
81228 2 18270393871951235221
90316 7 18341621395108220545
9841814 1 18197229245897509583

>  <PUBCHEM_SHAPE_MULTIPOLES>  (1) 
430.16
8.65
5.03
1.31
0.34
7.68
-0.11
-11.98
2.51
-1.51
1.32
0.78
0.13
-0.62

>  <PUBCHEM_SHAPE_SELFOVERLAP>  (1) 
907.641

>  <PUBCHEM_SHAPE_VOLUME>  (1) 
242.2

>  <PUBCHEM_COORDINATE_TYPE>  (1) 
2
5
10

$$$$
