49038
     RDKit          3D

 24 25  0  0  1  0  0  0  0  0999 V2000
   -0.5425    1.3700   -0.0822 O   0  0  0  0  0  0  0  0  0  0  0  0
    5.5540    0.1779    0.6080 O   0  0  0  0  0  0  0  0  0  0  0  0
    0.2341    3.3875   -0.8735 O   0  0  0  0  0  0  0  0  0  0  0  0
   -5.1582   -0.0406    0.3717 N   0  0  0  0  0  0  0  0  0  0  0  0
   -6.0792   -2.2781   -0.1847 C   0  0  0  0  0  0  0  0  0  0  0  0
   -5.2110   -1.0969   -0.6502 C   0  0  0  0  0  0  0  0  0  0  0  0
   -7.4863   -1.7986    0.1880 C   0  0  0  0  0  0  0  0  0  0  0  0
   -7.4119   -0.6473    1.1852 C   0  0  0  0  0  0  0  0  0  0  0  0
   -6.5010    0.4703    0.6774 C   0  0  0  0  0  0  0  0  0  0  0  0
   -4.2833    1.0484   -0.0627 C   0  0  0  0  0  0  0  0  0  0  0  0
   -6.1456   -3.3593   -1.2617 C   0  0  0  0  0  0  0  0  0  0  0  0
   -2.8205    0.6605    0.1276 C   0  0  0  0  0  0  0  0  0  0  0  0
   -1.8847    1.7845   -0.2961 C   0  0  0  0  0  0  0  0  0  0  0  0
    0.4228    2.2716   -0.4147 C   0  0  0  0  0  0  0  0  0  0  0  0
    1.7746    1.7194   -0.1461 C   0  0  0  0  0  0  0  0  0  0  0  0
    7.1461   -1.5409    0.0916 C   0  0  0  0  0  0  0  0  0  0  0  0
    5.7123   -1.2361    0.5016 C   0  0  0  0  0  0  0  0  0  0  0  0
    7.3829   -3.0411   -0.0569 C   0  0  0  0  0  0  0  0  0  0  0  0
    2.9077    2.4857   -0.4196 C   0  0  0  0  0  0  0  0  0  0  0  0
    1.9117    0.4350    0.3802 C   0  0  0  0  0  0  0  0  0  0  0  0
    4.3147    0.6829    0.3594 C   0  0  0  0  0  0  0  0  0  0  0  0
    4.1778    1.9675   -0.1669 C   0  0  0  0  0  0  0  0  0  0  0  0
    3.1817   -0.0833    0.6330 C   0  0  0  0  0  0  0  0  0  0  0  0
    8.8038   -3.3389   -0.5083 C   0  0  0  0  0  0  0  0  0  0  0  0
  1 13  1  0
  1 14  1  0
  2 17  1  0
  2 21  1  0
  3 14  2  0
  4  6  1  0
  4  9  1  0
  4 10  1  0
  5  6  1  0
  5  7  1  0
  5 11  1  0
  7  8  1  0
  8  9  1  0
 10 12  1  0
 12 13  1  0
 14 15  1  0
 15 19  2  0
 15 20  1  0
 16 17  1  0
 16 18  1  0
 18 24  1  0
 19 22  1  0
 20 23  2  0
 21 22  2  0
 21 23  1  0
M  END
>  <PUBCHEM_COMPOUND_CID>  (1) 
49038

>  <PUBCHEM_CONFORMER_RMSD>  (1) 
1.2

>  <PUBCHEM_CONFORMER_DIVERSEORDER>  (1) 
1
87
19
86
58
11
83
20
26
50
24
55
73
78
37
29
33
5
82
72
62
13
59
80
35
36
44
18
61
22
60
79
42
32
49
2
65
81
57
70
75
54
41
23
51
47
53
15
84
9
7
48
77
43
39
52
71
45
34
69
8
76
21
74
68
12
85
3
10
40
14
30
6
27
63
28
4
46
56
16
64
25
38
31
17
66
67

>  <PUBCHEM_MMFF94_PARTIAL_CHARGES>  (1) 
20
1 -0.43
10 0.27
13 0.28
14 0.63
15 0.09
17 0.28
19 -0.15
2 -0.36
20 -0.15
21 0.08
22 -0.15
23 -0.15
3 -0.57
4 -0.81
49 0.15
50 0.15
51 0.15
52 0.15
6 0.27
9 0.27

>  <PUBCHEM_EFFECTIVE_ROTOR_COUNT>  (1) 
11.2

>  <PUBCHEM_PHARMACOPHORE_FEATURES>  (1) 
6
1 2 acceptor
1 24 hydrophobe
1 3 acceptor
1 4 cation
6 15 19 20 21 22 23 rings
6 4 5 6 7 8 9 rings

>  <PUBCHEM_HEAVY_ATOM_COUNT>  (1) 
24

>  <PUBCHEM_ATOM_DEF_STEREO_COUNT>  (1) 
0

>  <PUBCHEM_ATOM_UDEF_STEREO_COUNT>  (1) 
1

>  <PUBCHEM_BOND_DEF_STEREO_COUNT>  (1) 
0

>  <PUBCHEM_BOND_UDEF_STEREO_COUNT>  (1) 
0

>  <PUBCHEM_ISOTOPIC_ATOM_COUNT>  (1) 
0

>  <PUBCHEM_COMPONENT_COUNT>  (1) 
1

>  <PUBCHEM_CACTVS_TAUTO_COUNT>  (1) 
1

>  <PUBCHEM_CONFORMER_ID>  (1) 
0000BF8E00000001

>  <PUBCHEM_MMFF94_ENERGY>  (1) 
43.7568

>  <PUBCHEM_FEATURE_SELFOVERLAP>  (1) 
30.446

>  <PUBCHEM_SHAPE_FINGERPRINT>  (1) 
10280341 67 8069731955099634246
10411042 1 18336266743981273924
10669705 251 18130511842967267710
10740516 88 18129393596956020438
11409948 8 18271511033234850018
11497681 19 18408324372463050788
11963148 33 18191016812529323650
12645989 146 18408888434158808666
12895837 130 8141788495978303369
13248334 5 18120938562564792380
13533116 47 18336547230234623064
1361 4 18192993935887401855
13668630 136 18113897178314008481
14123256 34 18260830384231535192
14178184 131 18131062753483806039
14428016 167 18409727323034696090
14931854 50 17312819347129464538
15152005 304 18339935831120699022
16120349 21 18412829058262978953
16992779 147 16628813280266678648
1768 4 9007054704244980959
17857418 61 18266740358954114661
18335252 98 18411135824000839128
20028762 73 18411979161497708282
20281389 69 11887688272981298569
20398071 356 18409451397060279491
20982279 24 17604723308813044675
21033648 29 14764084346033359769
21130935 74 18270118040903826033
21267235 1 18335141960322368440
21585481 151 18272092647966080386
21585483 132 18265314270382010499
23522609 53 18120969276176528461
25242607 90 18340478994470147402
255183 451 18261116253872893876
33532 11 18410856551498364890
3504750 166 18342736317711917213
393628 194 10087053264476691082
406291 66 18408882911005127954
465052 167 18413108364323858196
5104073 3 15266191783669292904
54039377 194 18410014304507230830
559249 180 18411981399987370533
5718773 13 18410008828001727030
5937810 71 12252180732512327615
59682541 52 12901815079161402992
6289498 60 12175616257561015290
6327066 14 9006764394209578528
636775 8 18339930291260934982
6712543 237 16343704331004085951
96874 4 18270956972935179399

>  <PUBCHEM_SHAPE_MULTIPOLES>  (1) 
471.32
27.01
4.05
0.89
3.95
1.7
0.01
32.97
-2.03
3.88
1.45
-0.78
0.18
-0.84

>  <PUBCHEM_SHAPE_SELFOVERLAP>  (1) 
948.699

>  <PUBCHEM_SHAPE_VOLUME>  (1) 
277

>  <PUBCHEM_COORDINATE_TYPE>  (1) 
2
5
10

$$$$
