49043
     RDKit          3D

 21 21  0  0  0  0  0  0  0  0999 V2000
   -2.8219   -1.3406   -1.4920 S   0  0  0  0  0  0  0  0  0  0  0  0
    0.3028    0.9278   -0.1690 O   0  0  0  0  0  0  0  0  0  0  0  0
   -0.6572    0.9398   -2.2611 O   0  0  0  0  0  0  0  0  0  0  0  0
    3.9843    0.7021   -0.1970 N   0  0  0  0  0  0  0  0  0  0  0  0
    2.6418    0.8065    0.3551 C   0  0  0  0  0  0  0  0  0  0  0  0
    4.9818    1.1509    0.7773 C   0  0  0  0  0  0  0  0  0  0  0  0
    4.2678   -0.6735   -0.6134 C   0  0  0  0  0  0  0  0  0  0  0  0
    1.6055    0.8425   -0.7568 C   0  0  0  0  0  0  0  0  0  0  0  0
    4.9763    0.2690    2.0144 C   0  0  0  0  0  0  0  0  0  0  0  0
    5.6409   -0.7810   -1.2547 C   0  0  0  0  0  0  0  0  0  0  0  0
   -1.9178   -2.6470    0.8067 C   0  0  0  0  0  0  0  0  0  0  0  0
   -2.9781   -2.6969   -0.2931 C   0  0  0  0  0  0  0  0  0  0  0  0
   -0.4843   -2.7805    0.2856 C   0  0  0  0  0  0  0  0  0  0  0  0
   -2.0239    1.0575   -0.3109 C   0  0  0  0  0  0  0  0  0  0  0  0
   -3.0206    0.0895   -0.4354 C   0  0  0  0  0  0  0  0  0  0  0  0
   -0.7577    0.9703   -1.0299 C   0  0  0  0  0  0  0  0  0  0  0  0
    0.5176   -2.8260    1.4294 C   0  0  0  0  0  0  0  0  0  0  0  0
   -2.2203    2.1574    0.5243 C   0  0  0  0  0  0  0  0  0  0  0  0
   -4.2136    0.2215    0.2755 C   0  0  0  0  0  0  0  0  0  0  0  0
   -3.4134    2.2893    1.2349 C   0  0  0  0  0  0  0  0  0  0  0  0
   -4.4099    1.3214    1.1105 C   0  0  0  0  0  0  0  0  0  0  0  0
  1 12  1  0
  1 15  1  0
  2  8  1  0
  2 16  1  0
  3 16  2  0
  4  5  1  0
  4  6  1  0
  4  7  1  0
  5  8  1  0
  6  9  1  0
  7 10  1  0
 11 12  1  0
 11 13  1  0
 13 17  1  0
 14 15  2  0
 14 16  1  0
 14 18  1  0
 15 19  1  0
 18 20  2  0
 19 21  2  0
 20 21  1  0
M  END
>  <PUBCHEM_COMPOUND_CID>  (1) 
49043

>  <PUBCHEM_CONFORMER_RMSD>  (1) 
1.2

>  <PUBCHEM_CONFORMER_DIVERSEORDER>  (1) 
1
45
29
28
42
44
65
56
63
15
77
76
67
10
26
36
55
54
46
68
7
41
37
11
25
62
24
4
50
3
14
17
32
48
59
73
22
34
47
74
53
40
13
12
38
43
30
61
21
64
70
33
6
66
52
35
60
8
58
39
5
31
2
9
20
49
72
23
27
69
75
51
18
57
71
19
16

>  <PUBCHEM_MMFF94_PARTIAL_CHARGES>  (1) 
20
1 -0.33
12 0.23
14 0.09
15 0.1
16 0.63
18 -0.15
19 -0.15
2 -0.43
20 -0.15
21 -0.15
3 -0.57
4 -0.81
45 0.15
46 0.15
47 0.15
48 0.15
5 0.27
6 0.27
7 0.27
8 0.28

>  <PUBCHEM_EFFECTIVE_ROTOR_COUNT>  (1) 
11

>  <PUBCHEM_PHARMACOPHORE_FEATURES>  (1) 
5
1 17 hydrophobe
1 3 acceptor
1 4 cation
4 1 11 12 13 hydrophobe
6 14 15 18 19 20 21 rings

>  <PUBCHEM_HEAVY_ATOM_COUNT>  (1) 
21

>  <PUBCHEM_ATOM_DEF_STEREO_COUNT>  (1) 
0

>  <PUBCHEM_ATOM_UDEF_STEREO_COUNT>  (1) 
0

>  <PUBCHEM_BOND_DEF_STEREO_COUNT>  (1) 
0

>  <PUBCHEM_BOND_UDEF_STEREO_COUNT>  (1) 
0

>  <PUBCHEM_ISOTOPIC_ATOM_COUNT>  (1) 
0

>  <PUBCHEM_COMPONENT_COUNT>  (1) 
1

>  <PUBCHEM_CACTVS_TAUTO_COUNT>  (1) 
1

>  <PUBCHEM_CONFORMER_ID>  (1) 
0000BF9300000001

>  <PUBCHEM_MMFF94_ENERGY>  (1) 
42.1838

>  <PUBCHEM_FEATURE_SELFOVERLAP>  (1) 
25.372

>  <PUBCHEM_SHAPE_FINGERPRINT>  (1) 
10369192 42 13120288202793375694
11405975 8 17988642965662155400
12553582 1 17894910728807237252
12633257 1 18334008411163083084
12788726 201 17977407232188978655
13135754 10 17752517427179724571
13583140 156 16988276586053229818
13675066 3 17561360682482366748
14341114 176 18131357405678285696
14420673 8 17986121721070271470
14840074 17 17531254945531827598
15209289 33 18410575110607008017
15537594 2 17530687606622924538
16120349 306 18042384933274363930
1813 80 17676214554433220348
20261772 1 17894348878344162720
235170 7 12251899291894789856
23559900 14 18343305890293866940
4073 2 18341335570004742362
5048184 11 18337950082675271665
5104073 3 17846775200807185618
5924683 9 17846489383317877999
602551 16 18336262427364269194
90127 26 17203611506179382260
9709674 26 18270682086232195710

>  <PUBCHEM_SHAPE_MULTIPOLES>  (1) 
419.3
10.99
3.13
1.64
15.16
2.3
0.08
-2.46
-1.6
-2.99
-1.11
0.63
0.06
-0.33

>  <PUBCHEM_SHAPE_SELFOVERLAP>  (1) 
816.92

>  <PUBCHEM_SHAPE_VOLUME>  (1) 
255.3

>  <PUBCHEM_COORDINATE_TYPE>  (1) 
2
5
10

$$$$
