49042
     RDKit          3D

 21 21  0  0  0  0  0  0  0  0999 V2000
   -4.4226    0.7567   -0.2984 S   0  0  0  0  0  0  0  0  0  0  0  0
    1.8973    0.0218    0.1598 O   0  0  0  0  0  0  0  0  0  0  0  0
    0.8274    2.0599    0.1613 O   0  0  0  0  0  0  0  0  0  0  0  0
    5.5686    0.2421    0.4387 N   0  0  0  0  0  0  0  0  0  0  0  0
    4.2575   -0.3797    0.3277 C   0  0  0  0  0  0  0  0  0  0  0  0
    6.5513   -0.7099    0.9622 C   0  0  0  0  0  0  0  0  0  0  0  0
    6.0083    0.7596   -0.8594 C   0  0  0  0  0  0  0  0  0  0  0  0
    3.1644    0.6761    0.2863 C   0  0  0  0  0  0  0  0  0  0  0  0
    6.7329   -1.8863    0.0181 C   0  0  0  0  0  0  0  0  0  0  0  0
    7.3450    1.4721   -0.7422 C   0  0  0  0  0  0  0  0  0  0  0  0
   -7.0207   -0.2428   -0.5414 C   0  0  0  0  0  0  0  0  0  0  0  0
   -7.5298    0.5074    0.6923 C   0  0  0  0  0  0  0  0  0  0  0  0
   -5.5530   -0.6584   -0.4452 C   0  0  0  0  0  0  0  0  0  0  0  0
   -0.4303    0.0425   -0.0201 C   0  0  0  0  0  0  0  0  0  0  0  0
   -2.8362   -0.0659   -0.2101 C   0  0  0  0  0  0  0  0  0  0  0  0
    0.7898    0.8234    0.1067 C   0  0  0  0  0  0  0  0  0  0  0  0
   -1.6667    0.6844   -0.0884 C   0  0  0  0  0  0  0  0  0  0  0  0
   -9.0177    0.8052    0.5834 C   0  0  0  0  0  0  0  0  0  0  0  0
   -0.3634   -1.3498   -0.0733 C   0  0  0  0  0  0  0  0  0  0  0  0
   -2.7693   -1.4582   -0.2631 C   0  0  0  0  0  0  0  0  0  0  0  0
   -1.5328   -2.1002   -0.1947 C   0  0  0  0  0  0  0  0  0  0  0  0
  1 13  1  0
  1 15  1  0
  2  8  1  0
  2 16  1  0
  3 16  2  0
  4  5  1  0
  4  6  1  0
  4  7  1  0
  5  8  1  0
  6  9  1  0
  7 10  1  0
 11 12  1  0
 11 13  1  0
 12 18  1  0
 14 16  1  0
 14 17  2  0
 14 19  1  0
 15 17  1  0
 15 20  2  0
 19 21  2  0
 20 21  1  0
M  END
>  <PUBCHEM_COMPOUND_CID>  (1) 
49042

>  <PUBCHEM_CONFORMER_RMSD>  (1) 
1.2

>  <PUBCHEM_CONFORMER_DIVERSEORDER>  (1) 
2
15
10
62
33
58
27
49
55
31
37
63
24
32
5
44
45
40
72
64
21
6
18
35
70
42
51
29
57
11
59
20
38
67
66
41
36
13
1
23
48
16
54
68
30
73
69
43
47
25
46
50
22
3
34
17
52
12
9
60
56
39
71
4
53
19
26
65
61
8
28
7
14

>  <PUBCHEM_MMFF94_PARTIAL_CHARGES>  (1) 
20
1 -0.33
13 0.23
14 0.09
15 0.1
16 0.63
17 -0.15
19 -0.15
2 -0.43
20 -0.15
21 -0.15
3 -0.57
4 -0.81
42 0.15
46 0.15
47 0.15
48 0.15
5 0.27
6 0.27
7 0.27
8 0.28

>  <PUBCHEM_EFFECTIVE_ROTOR_COUNT>  (1) 
11

>  <PUBCHEM_PHARMACOPHORE_FEATURES>  (1) 
5
1 18 hydrophobe
1 3 acceptor
1 4 cation
4 1 11 12 13 hydrophobe
6 14 15 17 19 20 21 rings

>  <PUBCHEM_HEAVY_ATOM_COUNT>  (1) 
21

>  <PUBCHEM_ATOM_DEF_STEREO_COUNT>  (1) 
0

>  <PUBCHEM_ATOM_UDEF_STEREO_COUNT>  (1) 
0

>  <PUBCHEM_BOND_DEF_STEREO_COUNT>  (1) 
0

>  <PUBCHEM_BOND_UDEF_STEREO_COUNT>  (1) 
0

>  <PUBCHEM_ISOTOPIC_ATOM_COUNT>  (1) 
0

>  <PUBCHEM_COMPONENT_COUNT>  (1) 
1

>  <PUBCHEM_CACTVS_TAUTO_COUNT>  (1) 
1

>  <PUBCHEM_CONFORMER_ID>  (1) 
0000BF9200000002

>  <PUBCHEM_MMFF94_ENERGY>  (1) 
41.8695

>  <PUBCHEM_FEATURE_SELFOVERLAP>  (1) 
25.372

>  <PUBCHEM_SHAPE_FINGERPRINT>  (1) 
10050765 1 18054222413040234713
10299344 5 18410293609691643008
106641 1 15574718019425623321
12236239 1 18040432192302315652
13533116 47 17845934039920849134
13914758 101 15626231195179327851
14251764 18 18413388743872515149
14251764 46 17418374692431024544
15183329 4 18130793364755081338
15849732 13 17458345247257350519
20281389 69 18260825999260102804
21095086 128 14995999926194028891
21267235 1 18335702719420196224
21792934 111 18341320137897559264
22224240 67 13984661464644537681
23559900 14 18200303459298204840
246663 6 17313106337244849603
28498 318 18411697656091781463
3004659 81 18261109657019021146
3009799 131 12895351093003089915
3178227 256 18261119577955495481
335352 9 18341047502095009621
34797466 226 12757151247757846050
4073 2 17822576135586390698
4325135 7 18260829320118895556
5283156 175 18334573539350401058
5758199 1 18413109451182400251
59682541 35 17894636980961884953
59755656 520 18335413591571971647

>  <PUBCHEM_SHAPE_MULTIPOLES>  (1) 
419.3
24.94
1.69
0.81
8.64
0.41
0.01
-3.61
1.58
-1.34
-0.11
-0.22
-0.04
-1.25

>  <PUBCHEM_SHAPE_SELFOVERLAP>  (1) 
815.842

>  <PUBCHEM_SHAPE_VOLUME>  (1) 
255.5

>  <PUBCHEM_COORDINATE_TYPE>  (1) 
2
5
10

$$$$
