49040
     RDKit          3D

 24 25  0  0  0  0  0  0  0  0999 V2000
   -0.4334    1.3583   -0.0651 O   0  0  0  0  0  0  0  0  0  0  0  0
    5.6388    0.0649    0.6560 O   0  0  0  0  0  0  0  0  0  0  0  0
    0.3725    3.4304   -0.6619 O   0  0  0  0  0  0  0  0  0  0  0  0
   -5.0660   -0.0510    0.1619 N   0  0  0  0  0  0  0  0  0  0  0  0
   -7.4455   -1.7276   -0.1875 C   0  0  0  0  0  0  0  0  0  0  0  0
   -6.0515   -2.1730   -0.6425 C   0  0  0  0  0  0  0  0  0  0  0  0
   -7.3178   -0.7073    0.9488 C   0  0  0  0  0  0  0  0  0  0  0  0
   -5.1654   -0.9717   -0.9785 C   0  0  0  0  0  0  0  0  0  0  0  0
   -6.3901    0.4456    0.5595 C   0  0  0  0  0  0  0  0  0  0  0  0
   -4.1754    1.0646   -0.1572 C   0  0  0  0  0  0  0  0  0  0  0  0
   -8.2908   -2.9236    0.2414 C   0  0  0  0  0  0  0  0  0  0  0  0
   -2.7195    0.6507    0.0316 C   0  0  0  0  0  0  0  0  0  0  0  0
   -1.7679    1.7997   -0.2725 C   0  0  0  0  0  0  0  0  0  0  0  0
    0.5444    2.2778   -0.2970 C   0  0  0  0  0  0  0  0  0  0  0  0
    1.8866    1.6943   -0.0468 C   0  0  0  0  0  0  0  0  0  0  0  0
    7.2327   -1.6152    0.0290 C   0  0  0  0  0  0  0  0  0  0  0  0
    5.7916   -1.3358    0.4316 C   0  0  0  0  0  0  0  0  0  0  0  0
    7.4644   -3.0988   -0.2431 C   0  0  0  0  0  0  0  0  0  0  0  0
    3.0299    2.4726   -0.2278 C   0  0  0  0  0  0  0  0  0  0  0  0
    2.0043    0.3683    0.3697 C   0  0  0  0  0  0  0  0  0  0  0  0
    4.4085    0.5988    0.4242 C   0  0  0  0  0  0  0  0  0  0  0  0
    4.2909    1.9249    0.0077 C   0  0  0  0  0  0  0  0  0  0  0  0
    3.2653   -0.1795    0.6051 C   0  0  0  0  0  0  0  0  0  0  0  0
    8.8935   -3.3673   -0.6865 C   0  0  0  0  0  0  0  0  0  0  0  0
  1 13  1  0
  1 14  1  0
  2 17  1  0
  2 21  1  0
  3 14  2  0
  4  8  1  0
  4  9  1  0
  4 10  1  0
  5  6  1  0
  5  7  1  0
  5 11  1  0
  6  8  1  0
  7  9  1  0
 10 12  1  0
 12 13  1  0
 14 15  1  0
 15 19  2  0
 15 20  1  0
 16 17  1  0
 16 18  1  0
 18 24  1  0
 19 22  1  0
 20 23  2  0
 21 22  2  0
 21 23  1  0
M  END
>  <PUBCHEM_COMPOUND_CID>  (1) 
49040

>  <PUBCHEM_CONFORMER_RMSD>  (1) 
1.2

>  <PUBCHEM_CONFORMER_DIVERSEORDER>  (1) 
1
42
30
32
40
35
22
41
36
4
29
9
7
24
13
14
10
27
15
11
5
28
19
18
3
26
34
38
2
25
23
17
8
31
21
6
12
33
37
39
20
16

>  <PUBCHEM_MMFF94_PARTIAL_CHARGES>  (1) 
20
1 -0.43
10 0.27
13 0.28
14 0.63
15 0.09
17 0.28
19 -0.15
2 -0.36
20 -0.15
21 0.08
22 -0.15
23 -0.15
3 -0.57
4 -0.81
49 0.15
50 0.15
51 0.15
52 0.15
8 0.27
9 0.27

>  <PUBCHEM_EFFECTIVE_ROTOR_COUNT>  (1) 
11.2

>  <PUBCHEM_PHARMACOPHORE_FEATURES>  (1) 
6
1 2 acceptor
1 24 hydrophobe
1 3 acceptor
1 4 cation
6 15 19 20 21 22 23 rings
6 4 5 6 7 8 9 rings

>  <PUBCHEM_HEAVY_ATOM_COUNT>  (1) 
24

>  <PUBCHEM_ATOM_DEF_STEREO_COUNT>  (1) 
0

>  <PUBCHEM_ATOM_UDEF_STEREO_COUNT>  (1) 
0

>  <PUBCHEM_BOND_DEF_STEREO_COUNT>  (1) 
0

>  <PUBCHEM_BOND_UDEF_STEREO_COUNT>  (1) 
0

>  <PUBCHEM_ISOTOPIC_ATOM_COUNT>  (1) 
0

>  <PUBCHEM_COMPONENT_COUNT>  (1) 
1

>  <PUBCHEM_CACTVS_TAUTO_COUNT>  (1) 
1

>  <PUBCHEM_CONFORMER_ID>  (1) 
0000BF9000000001

>  <PUBCHEM_MMFF94_ENERGY>  (1) 
43.7436

>  <PUBCHEM_FEATURE_SELFOVERLAP>  (1) 
30.446

>  <PUBCHEM_SHAPE_FINGERPRINT>  (1) 
10299344 5 18339927112478402049
10411042 1 18410012096936641068
10669705 251 18201725011958993054
10740516 88 18057897857617917142
11409948 8 18200579339077410410
11963148 33 18264200310758537818
12522641 68 11098152050003979816
13248334 5 18193839481968483372
13533116 47 18337953509980669657
1361 4 18265051525683038543
13668630 136 18113893901575740875
14123256 34 18334856099877885544
14178184 131 18131344237119055591
14428016 167 18410290272908976594
14931854 50 17458059331157887842
15152005 304 18339935843831527614
15152005 77 18130782309299201310
15510800 12 18187655712334701099
16120349 21 18341052926327656185
16992779 147 16485541413298405496
18335252 98 18412542103657156432
20028762 73 18412542094339773730
20165401 70 18341610455573920967
2026 5 18336827498447011834
20281389 69 11671798069671899929
20621476 38 18410573993741385730
20982279 24 17677625319169986451
21095086 4 18270965627426325190
21130935 74 18341895255334840545
21130990 3 18410860949102517835
21267235 1 18408605829774380872
21304304 249 18410857663526013078
21365058 113 17168145676272747373
21424621 283 9439399138363548836
21585481 151 18342741771666352930
23522609 53 18120406309016909701
25242607 90 18341323427800296850
255183 451 18261115158545509084
33532 11 18410856572529979210
3504750 166 18272647953315305125
3918712 181 8935000352290923454
406291 66 18410290290051740642
465052 167 18342457045647312772
54039377 194 18411421679359129158
559249 180 18412543246123725285
5718773 13 18410009927370871526
5937810 71 12252180732718016975
59682541 52 13262664899718944232
6327066 14 8502363439214768056
636775 8 18268435642860329606
6712543 237 15985104115420970639

>  <PUBCHEM_SHAPE_MULTIPOLES>  (1) 
471.32
28.48
3.92
0.82
4.26
1.18
0
36.96
0.66
-4.63
-0.88
0.32
0.11
0.6

>  <PUBCHEM_SHAPE_SELFOVERLAP>  (1) 
948.705

>  <PUBCHEM_SHAPE_VOLUME>  (1) 
277.2

>  <PUBCHEM_COORDINATE_TYPE>  (1) 
2
5
10

$$$$
