49064
     RDKit          3D

 27 28  0  0  1  0  0  0  0  0999 V2000
   -2.0469   -0.9857    0.0955 O   0  0  0  0  0  0  0  0  0  0  0  0
    3.9698   -0.1676   -1.3808 O   0  0  0  0  0  0  0  0  0  0  0  0
   -1.2636   -2.9282    1.0505 O   0  0  0  0  0  0  0  0  0  0  0  0
   -6.6444    0.5660   -0.0368 N   0  0  0  0  0  0  0  0  0  0  0  0
   -8.0067    0.0952   -0.3530 C   0  0  0  0  0  0  0  0  0  0  0  0
   -8.8291    1.2536   -0.9494 C   0  0  0  0  0  0  0  0  0  0  0  0
   -6.6218    1.7128    0.8780 C   0  0  0  0  0  0  0  0  0  0  0  0
   -8.8412    2.4857   -0.0497 C   0  0  0  0  0  0  0  0  0  0  0  0
   -7.4182    2.8898    0.3145 C   0  0  0  0  0  0  0  0  0  0  0  0
   -5.7645   -0.4994    0.4350 C   0  0  0  0  0  0  0  0  0  0  0  0
   -8.7569   -0.5690    0.8121 C   0  0  0  0  0  0  0  0  0  0  0  0
   -4.3199   -0.2052    0.0437 C   0  0  0  0  0  0  0  0  0  0  0  0
   -3.3800   -1.3113    0.5038 C   0  0  0  0  0  0  0  0  0  0  0  0
    8.5048    1.2064   -0.0645 C   0  0  0  0  0  0  0  0  0  0  0  0
    7.4305    0.1233    0.0552 C   0  0  0  0  0  0  0  0  0  0  0  0
    9.7828    0.8849    0.7155 C   0  0  0  0  0  0  0  0  0  0  0  0
    6.1888    0.4833   -0.7594 C   0  0  0  0  0  0  0  0  0  0  0  0
   10.8837    1.9313    0.5366 C   0  0  0  0  0  0  0  0  0  0  0  0
   -1.0633   -1.8768    0.4279 C   0  0  0  0  0  0  0  0  0  0  0  0
    5.0973   -0.5674   -0.6141 C   0  0  0  0  0  0  0  0  0  0  0  0
    0.2404   -1.4334   -0.0397 C   0  0  0  0  0  0  0  0  0  0  0  0
   12.1538    1.5305    1.2717 C   0  0  0  0  0  0  0  0  0  0  0  0
    2.7413   -0.5840   -0.9377 C   0  0  0  0  0  0  0  0  0  0  0  0
    1.3712   -2.2121    0.2064 C   0  0  0  0  0  0  0  0  0  0  0  0
    0.3600   -0.2301   -0.7349 C   0  0  0  0  0  0  0  0  0  0  0  0
    2.6217   -1.7875   -0.2426 C   0  0  0  0  0  0  0  0  0  0  0  0
    1.6105    0.1947   -1.1838 C   0  0  0  0  0  0  0  0  0  0  0  0
  1 13  1  0
  1 19  1  0
  2 20  1  0
  2 23  1  0
  3 19  2  0
  4  5  1  0
  4  7  1  0
  4 10  1  0
  5  6  1  0
  5 11  1  0
  6  8  1  0
  7  9  1  0
  8  9  1  0
 10 12  1  0
 12 13  1  0
 14 15  1  0
 14 16  1  0
 15 17  1  0
 16 18  1  0
 17 20  1  0
 18 22  1  0
 19 21  1  0
 21 24  2  0
 21 25  1  0
 23 26  2  0
 23 27  1  0
 24 26  1  0
 25 27  2  0
M  END
>  <PUBCHEM_COMPOUND_CID>  (1) 
49064

>  <PUBCHEM_CONFORMER_RMSD>  (1) 
1.4

>  <PUBCHEM_CONFORMER_DIVERSEORDER>  (1) 
1
71
24
29
78
73
35
32
28
44
16
64
70
34
59
47
12
53
40
2
43
67
80
18
62
39
77
66
81
33
82
27
57
75
42
37
52
5
21
8
51
20
19
55
65
23
10
41
36
11
60
14
38
45
48
76
17
26
3
50
7
69
31
72
74
56
6
30
58
15
79
68
22
4
63
49
25
13
61
9
54
46

>  <PUBCHEM_MMFF94_PARTIAL_CHARGES>  (1) 
20
1 -0.43
10 0.27
13 0.28
19 0.63
2 -0.36
20 0.28
21 0.09
23 0.08
24 -0.15
25 -0.15
26 -0.15
27 -0.15
3 -0.57
4 -0.81
5 0.27
61 0.15
62 0.15
63 0.15
64 0.15
7 0.27

>  <PUBCHEM_EFFECTIVE_ROTOR_COUNT>  (1) 
14.2

>  <PUBCHEM_PHARMACOPHORE_FEATURES>  (1) 
7
1 2 acceptor
1 22 hydrophobe
1 3 acceptor
1 4 cation
5 14 15 16 17 18 hydrophobe
6 21 23 24 25 26 27 rings
6 4 5 6 7 8 9 rings

>  <PUBCHEM_HEAVY_ATOM_COUNT>  (1) 
27

>  <PUBCHEM_ATOM_DEF_STEREO_COUNT>  (1) 
0

>  <PUBCHEM_ATOM_UDEF_STEREO_COUNT>  (1) 
1

>  <PUBCHEM_BOND_DEF_STEREO_COUNT>  (1) 
0

>  <PUBCHEM_BOND_UDEF_STEREO_COUNT>  (1) 
0

>  <PUBCHEM_ISOTOPIC_ATOM_COUNT>  (1) 
0

>  <PUBCHEM_COMPONENT_COUNT>  (1) 
1

>  <PUBCHEM_CACTVS_TAUTO_COUNT>  (1) 
1

>  <PUBCHEM_CONFORMER_ID>  (1) 
0000BFA800000001

>  <PUBCHEM_MMFF94_ENERGY>  (1) 
43.7988

>  <PUBCHEM_FEATURE_SELFOVERLAP>  (1) 
35.521

>  <PUBCHEM_SHAPE_FINGERPRINT>  (1) 
10299344 5 10591754377824279343
10429389 143 18131915948773332032
11061554 47 18411135832048117532
11408170 108 14635139094195338088
12013929 2 18273219699899701774
12498461 61 13912330109802873321
12539745 222 12179833996664606663
12838862 33 18187641397392838997
13553643 46 17967812747570459468
14251920 17 18342737425865986685
14344974 52 17703505596685608703
14395042 24 17967252001599834260
15247644 1 11963387445146549696
15419008 145 16732978704614436733
155225 1 18273496784496721816
1754911 235 15195285339709002136
1818759 1 8646769993445011844
21130971 5 10519692424194768397
21130990 3 8790879692162676096
21150785 3 15985387776420112783
21403212 168 18113900468364789866
21585481 151 8142079862776847341
21591340 7 18259983794902065155
21792934 111 18335702724976050550
246663 6 10953455233029263670
306946 40 17846776326505621408
4073 2 17822868494353608123
54039377 194 9655575214416282536
5719381 82 10737282451269206784
57828716 42 18342173419915568023
58260988 521 12468635032699616426
636775 72 18409733933279534281
636775 8 9583523122611203842
9937071 3 13406787827716166096
9995097 26 9367344834760867938

>  <PUBCHEM_SHAPE_MULTIPOLES>  (1) 
533.06
42.37
2.59
1.05
58.85
0.31
-0.06
40.27
9.94
-2.5
0.67
0.65
0.04
1.89

>  <PUBCHEM_SHAPE_SELFOVERLAP>  (1) 
1062.333

>  <PUBCHEM_SHAPE_VOLUME>  (1) 
315.7

>  <PUBCHEM_COORDINATE_TYPE>  (1) 
2
5
10

$$$$
