49062
     RDKit          3D

 20 20  0  0  1  0  0  0  0  0999 V2000
    3.4954   -2.9104    0.5623 I   0  0  0  0  0  0  0  0  0  0  0  0
    5.3072   -0.4478   -0.4134 F   0  0  0  0  0  0  0  0  0  0  0  0
   -0.7916    0.3741    0.1432 O   0  0  0  0  0  0  0  0  0  0  0  0
   -0.1648    2.5214    0.7102 O   0  0  0  0  0  0  0  0  0  0  0  0
   -2.9118   -0.7833   -0.0575 N   0  0  0  0  0  0  0  0  0  0  0  0
   -2.2461    0.5191    0.2676 C   0  0  0  0  0  0  0  0  0  0  0  0
   -2.7204    1.6433   -0.7043 C   0  0  0  0  0  0  0  0  0  0  0  0
   -2.5927    0.9275    1.7196 C   0  0  0  0  0  0  0  0  0  0  0  0
   -2.4916   -1.8788    0.8264 C   0  0  0  0  0  0  0  0  0  0  0  0
   -2.7103   -1.2032   -1.4502 C   0  0  0  0  0  0  0  0  0  0  0  0
   -4.2163    1.9397   -0.6762 C   0  0  0  0  0  0  0  0  0  0  0  0
   -3.3021   -3.1369    0.5647 C   0  0  0  0  0  0  0  0  0  0  0  0
   -1.2509   -1.5277   -1.7203 C   0  0  0  0  0  0  0  0  0  0  0  0
    0.0879    1.3765    0.3740 C   0  0  0  0  0  0  0  0  0  0  0  0
    1.4735    0.8840    0.1671 C   0  0  0  0  0  0  0  0  0  0  0  0
    1.7519   -0.4462    0.4051 C   0  0  0  0  0  0  0  0  0  0  0  0
    2.4395    1.7732   -0.2573 C   0  0  0  0  0  0  0  0  0  0  0  0
    3.0537   -0.9077    0.2101 C   0  0  0  0  0  0  0  0  0  0  0  0
    3.7412    1.3118   -0.4522 C   0  0  0  0  0  0  0  0  0  0  0  0
    4.0484   -0.0286   -0.2188 C   0  0  0  0  0  0  0  0  0  0  0  0
  1 18  1  0
  2 20  1  0
  3  6  1  0
  3 14  1  0
  4 14  2  0
  5  6  1  0
  5  9  1  0
  5 10  1  0
  6  7  1  0
  6  8  1  0
  7 11  1  0
  9 12  1  0
 10 13  1  0
 14 15  1  0
 15 16  2  0
 15 17  1  0
 16 18  1  0
 17 19  2  0
 18 20  2  0
 19 20  1  0
M  END
>  <PUBCHEM_COMPOUND_CID>  (1) 
49062

>  <PUBCHEM_CONFORMER_RMSD>  (1) 
0.8

>  <PUBCHEM_CONFORMER_DIVERSEORDER>  (1) 
12
23
51
18
33
29
48
34
39
36
61
58
10
59
2
50
40
42
60
57
46
28
30
16
52
5
54
44
35
43
8
55
21
25
15
45
32
4
53
7
47
38
24
19
22
56
26
17
6
41
3
37
9
11
20
1
49
27
13
14
31

>  <PUBCHEM_MMFF94_PARTIAL_CHARGES>  (1) 
18
1 -0.08
10 0.27
14 0.63
15 0.09
16 -0.15
17 -0.15
18 0.08
19 -0.15
2 -0.19
20 0.19
3 -0.43
39 0.15
4 -0.57
40 0.15
41 0.15
5 -0.81
6 0.55
9 0.27

>  <PUBCHEM_EFFECTIVE_ROTOR_COUNT>  (1) 
7

>  <PUBCHEM_PHARMACOPHORE_FEATURES>  (1) 
5
1 1 hydrophobe
1 11 hydrophobe
1 4 acceptor
1 5 cation
6 15 16 17 18 19 20 rings

>  <PUBCHEM_HEAVY_ATOM_COUNT>  (1) 
20

>  <PUBCHEM_ATOM_DEF_STEREO_COUNT>  (1) 
0

>  <PUBCHEM_ATOM_UDEF_STEREO_COUNT>  (1) 
1

>  <PUBCHEM_BOND_DEF_STEREO_COUNT>  (1) 
0

>  <PUBCHEM_BOND_UDEF_STEREO_COUNT>  (1) 
0

>  <PUBCHEM_ISOTOPIC_ATOM_COUNT>  (1) 
0

>  <PUBCHEM_COMPONENT_COUNT>  (1) 
1

>  <PUBCHEM_CACTVS_TAUTO_COUNT>  (1) 
1

>  <PUBCHEM_CONFORMER_ID>  (1) 
0000BFA60000000C

>  <PUBCHEM_MMFF94_ENERGY>  (1) 
51.332

>  <PUBCHEM_FEATURE_SELFOVERLAP>  (1) 
25.371

>  <PUBCHEM_SHAPE_FINGERPRINT>  (1) 
10616163 171 18411985758366878358
10764073 3 17538039907929231721
11315181 36 17775563131216415376
11578080 2 17559655412708890897
11725454 13 13612869244480544355
12553582 1 18340771434096989634
12555020 224 18264479582057342311
12788726 201 17772750476803045112
13140716 1 18342458114729873826
13224815 77 18410569621897325304
13583140 156 18271519896570138072
15375462 189 18057608861234630762
15422964 175 17687179103808288819
16752209 62 18130489921115889807
17349148 13 17632284623780543725
17492 89 18408603647768139986
18186145 218 15502377841940638100
20291156 8 18270963560792285182
20645476 183 18262511503598935677
20645477 70 18190458264552513202
20871999 31 18409160017894142245
21618674 54 18334856147296508080
21634736 98 18340488958551277820
21713013 43 17822847722678226943
221490 88 18337677533020325552
23402539 116 18260827090793439736
23402655 69 18334861576425723476
23559900 14 18411411779454107112
23598288 3 18201163238572480383
2871803 45 18190457345060493691
339767 52 18267852922634218362
34934 24 18338510851027964520
465052 167 17984150528666025607
4921388 177 16877950468167001555
5104073 3 18342175587960968768
559249 180 18339354163318876246
58051976 100 18409729564574581925
633830 44 16732990821033597744
90525 40 18131070424236665887
9709674 26 18410012117662060078

>  <PUBCHEM_SHAPE_MULTIPOLES>  (1) 
399.53
8.78
3.27
1.22
5.02
1.9
0.11
1.37
0.79
-0.74
-0.38
-0.98
0.25
-0.36

>  <PUBCHEM_SHAPE_SELFOVERLAP>  (1) 
790.856

>  <PUBCHEM_SHAPE_VOLUME>  (1) 
243.8

>  <PUBCHEM_COORDINATE_TYPE>  (1) 
2
5
10

$$$$
