49060
     RDKit          3D

 20 21  0  0  0  0  0  0  0  0999 V2000
    2.5891    2.0147    0.8093 S   0  0  0  0  0  0  0  0  0  0  0  0
    0.3094   -0.6583   -0.0250 O   0  0  0  0  0  0  0  0  0  0  0  0
    1.1088   -1.0450    2.0989 O   0  0  0  0  0  0  0  0  0  0  0  0
   -3.3670   -0.6087   -0.2862 N   0  0  0  0  0  0  0  0  0  0  0  0
   -4.2743   -0.5234   -1.4393 C   0  0  0  0  0  0  0  0  0  0  0  0
   -3.6635    0.4383    0.7016 C   0  0  0  0  0  0  0  0  0  0  0  0
   -5.7341   -0.6642   -1.0046 C   0  0  0  0  0  0  0  0  0  0  0  0
   -5.1031    0.3292    1.2061 C   0  0  0  0  0  0  0  0  0  0  0  0
   -6.0997    0.3708    0.0531 C   0  0  0  0  0  0  0  0  0  0  0  0
   -1.9741   -0.5199   -0.7235 C   0  0  0  0  0  0  0  0  0  0  0  0
   -1.0291   -0.7360    0.4477 C   0  0  0  0  0  0  0  0  0  0  0  0
    1.2847   -0.8319    0.9093 C   0  0  0  0  0  0  0  0  0  0  0  0
    2.6305   -0.7267    0.2912 C   0  0  0  0  0  0  0  0  0  0  0  0
    3.2881    0.4845    0.2002 C   0  0  0  0  0  0  0  0  0  0  0  0
    3.1888   -1.8984   -0.1864 C   0  0  0  0  0  0  0  0  0  0  0  0
    4.5514    0.5275   -0.3899 C   0  0  0  0  0  0  0  0  0  0  0  0
    4.4521   -1.8552   -0.7766 C   0  0  0  0  0  0  0  0  0  0  0  0
    5.1332   -0.6424   -0.8784 C   0  0  0  0  0  0  0  0  0  0  0  0
    1.6974    2.6126   -0.6524 C   0  0  0  0  0  0  0  0  0  0  0  0
    1.0113    3.9325   -0.3552 C   0  0  0  0  0  0  0  0  0  0  0  0
  1 14  1  0
  1 19  1  0
  2 11  1  0
  2 12  1  0
  3 12  2  0
  4  5  1  0
  4  6  1  0
  4 10  1  0
  5  7  1  0
  6  8  1  0
  7  9  1  0
  8  9  1  0
 10 11  1  0
 12 13  1  0
 13 14  2  0
 13 15  1  0
 14 16  1  0
 15 17  2  0
 16 18  2  0
 17 18  1  0
 19 20  1  0
M  END
>  <PUBCHEM_COMPOUND_CID>  (1) 
49060

>  <PUBCHEM_CONFORMER_RMSD>  (1) 
0.8

>  <PUBCHEM_CONFORMER_DIVERSEORDER>  (1) 
1
54
167
172
308
114
284
134
302
113
142
300
314
217
288
86
325
94
72
39
77
269
221
209
200
249
42
286
312
5
163
273
145
245
206
317
267
102
231
90
256
262
131
259
36
87
60
225
265
57
282
28
248
124
234
187
205
320
25
67
318
322
85
130
255
271
35
50
194
258
305
237
99
309
260
20
285
76
92
232
323
104
201
49
178
46
306
128
250
198
8
151
293
214
164
168
157
242
148
48
297
75
78
12
268
100
240
289
4
316
105
193
23
186
15
224
272
9
298
58
184
303
223
292
40
281
69
218
192
166
229
158
153
215
219
236
277
290
175
210
53
21
197
324
68
294
45
139
171
140
222
115
3
125
24
141
220
307
283
155
120
159
252
207
191
180
80
116
287
154
264
295
274
138
13
83
228
22
79
37
101
96
111
31
208
181
165
326
110
89
149
112
2
313
93
16
188
52
238
239
263
311
123
216
319
126
321
246
6
190
315
310
109
247
185
132
11
26
253
243
179
291
91
254
62
51
66
14
82
266
244
144
55
211
177
235
150
182
95
174
17
64
147
301
162
170
137
107
74
41
122
121
299
10
251
204
59
30
176
304
226
241
118
161
18
108
73
84
135
143
270
173
296
32
169
29
276
98
133
7
119
56
71
61
146
203
65
156
280
278
129
196
44
81
152
27
227
212
117
189
213
19
261
127
103
195
160
199
34
136
327
279
202
47
63
97
275
43
33
183
70
106
257
88
233
230
38

>  <PUBCHEM_MMFF94_PARTIAL_CHARGES>  (1) 
20
1 -0.33
10 0.27
11 0.28
12 0.63
13 0.09
14 0.1
15 -0.15
16 -0.15
17 -0.15
18 -0.15
19 0.23
2 -0.43
3 -0.57
35 0.15
36 0.15
37 0.15
38 0.15
4 -0.81
5 0.27
6 0.27

>  <PUBCHEM_EFFECTIVE_ROTOR_COUNT>  (1) 
8.2

>  <PUBCHEM_PHARMACOPHORE_FEATURES>  (1) 
5
1 20 hydrophobe
1 3 acceptor
1 4 cation
6 13 14 15 16 17 18 rings
6 4 5 6 7 8 9 rings

>  <PUBCHEM_HEAVY_ATOM_COUNT>  (1) 
20

>  <PUBCHEM_ATOM_DEF_STEREO_COUNT>  (1) 
0

>  <PUBCHEM_ATOM_UDEF_STEREO_COUNT>  (1) 
0

>  <PUBCHEM_BOND_DEF_STEREO_COUNT>  (1) 
0

>  <PUBCHEM_BOND_UDEF_STEREO_COUNT>  (1) 
0

>  <PUBCHEM_ISOTOPIC_ATOM_COUNT>  (1) 
0

>  <PUBCHEM_COMPONENT_COUNT>  (1) 
1

>  <PUBCHEM_CACTVS_TAUTO_COUNT>  (1) 
1

>  <PUBCHEM_CONFORMER_ID>  (1) 
0000BFA400000001

>  <PUBCHEM_MMFF94_ENERGY>  (1) 
38.0709

>  <PUBCHEM_FEATURE_SELFOVERLAP>  (1) 
25.371

>  <PUBCHEM_SHAPE_FINGERPRINT>  (1) 
10366900 7 17458341940507059177
10906281 52 18190749820377169616
11045977 3 17968104152958956939
11796584 16 16702304563534890126
12166972 35 18130788975631256169
12236239 1 17989208148798058659
12617007 42 18410863165975029788
12730499 353 18040442079027563290
13590594 115 18338805524038911913
14341114 328 12251904797726416918
14681490 219 18410012143384845988
15081414 286 18336548308677615708
15183329 4 17917715673371518623
15210252 30 17748832929882965932
17834072 33 18201716271604962887
17844677 252 18341899606337080091
18186145 218 18333725840637409315
21033648 29 17676755540219061397
21033650 10 16198497331891783848
21285901 2 18200040525863811046
21503847 285 18409448098251109361
21641784 216 17896057459458804404
221357 26 18335136470947963029
22289505 5 18334287648256052676
23559900 14 18341888632337118243
3004659 81 17274825731738343966
3060560 45 18343300388440897406
465052 167 13398915319717526950
474 4 18263638644445729145
5104073 3 14490745686347990993
542803 24 18413105044430078599
9971528 1 18342735230441567616
9981440 41 17332797756837735456

>  <PUBCHEM_SHAPE_MULTIPOLES>  (1) 
398.72
13.54
2.65
1.27
16.19
3.38
-0.26
-3.13
2.68
-3.35
0.5
0.53
-0.18
-0.33

>  <PUBCHEM_SHAPE_SELFOVERLAP>  (1) 
798.498

>  <PUBCHEM_SHAPE_VOLUME>  (1) 
236.1

>  <PUBCHEM_COORDINATE_TYPE>  (1) 
2
5
10

$$$$
