49079
     RDKit          3D

 26 26  0  0  0  0  0  0  0  0999 V2000
   -0.0058    2.1513   -0.0030 I   0  0  0  0  0  0  0  0  0  0  0  0
   -2.9578   -3.1436   -0.7280 I   0  0  0  0  0  0  0  0  0  0  0  0
    2.9604   -3.1267    0.7845 I   0  0  0  0  0  0  0  0  0  0  0  0
    2.7449    1.2654   -1.3514 O   0  0  0  0  0  0  0  0  0  0  0  0
   -2.7533    1.2738    1.3547 O   0  0  0  0  0  0  0  0  0  0  0  0
    0.3138   -4.7509   -1.1824 O   0  0  0  0  0  0  0  0  0  0  0  0
   -0.2450   -4.9344    1.0133 O   0  0  0  0  0  0  0  0  0  0  0  0
    2.3547    0.0376    0.6114 N   0  0  0  0  0  0  0  0  0  0  0  0
   -2.3497    0.0176   -0.5908 N   0  0  0  0  0  0  0  0  0  0  0  0
    5.0750    2.4751   -0.3267 C   0  0  0  0  0  0  0  0  0  0  0  0
   -5.0873    2.4647    0.3168 C   0  0  0  0  0  0  0  0  0  0  0  0
    4.2689    1.4782    0.5050 C   0  0  0  0  0  0  0  0  0  0  0  0
   -4.2786    1.4604   -0.5034 C   0  0  0  0  0  0  0  0  0  0  0  0
    6.3019    3.0011    0.4222 C   0  0  0  0  0  0  0  0  0  0  0  0
   -6.3157    2.9784   -0.4379 C   0  0  0  0  0  0  0  0  0  0  0  0
    1.1686   -0.6738    0.3118 C   0  0  0  0  0  0  0  0  0  0  0  0
   -1.1721   -0.6805   -0.2862 C   0  0  0  0  0  0  0  0  0  0  0  0
    3.0349    0.9361   -0.2061 C   0  0  0  0  0  0  0  0  0  0  0  0
   -3.0428    0.9301    0.2135 C   0  0  0  0  0  0  0  0  0  0  0  0
   -0.0027    0.0203    0.0088 C   0  0  0  0  0  0  0  0  0  0  0  0
   -1.1703   -2.0754   -0.2780 C   0  0  0  0  0  0  0  0  0  0  0  0
    1.1704   -2.0687    0.3200 C   0  0  0  0  0  0  0  0  0  0  0  0
    0.0010   -2.7694    0.0253 C   0  0  0  0  0  0  0  0  0  0  0  0
    7.0867    3.9906   -0.4248 C   0  0  0  0  0  0  0  0  0  0  0  0
   -7.1030    3.9757    0.3978 C   0  0  0  0  0  0  0  0  0  0  0  0
    0.0031   -4.2332    0.0337 C   0  0  0  0  0  0  0  0  0  0  0  0
  1 20  1  0
  2 21  1  0
  3 22  1  0
  4 18  2  0
  5 19  2  0
  6 26  1  0
  7 26  2  0
  8 16  1  0
  8 18  1  0
  9 17  1  0
  9 19  1  0
 10 12  1  0
 10 14  1  0
 11 13  1  0
 11 15  1  0
 12 18  1  0
 13 19  1  0
 14 24  1  0
 15 25  1  0
 16 20  2  0
 16 22  1  0
 17 20  1  0
 17 21  2  0
 21 23  1  0
 22 23  2  0
 23 26  1  0
M  END
>  <PUBCHEM_COMPOUND_CID>  (1) 
49079

>  <PUBCHEM_CONFORMER_RMSD>  (1) 
1

>  <PUBCHEM_CONFORMER_DIVERSEORDER>  (1) 
1
14
25
5
7
30
2
29
34
8
4
12
27
21
23
15
26
13
19
10
22
18
32
9
16
20
6
24
11
31
17
3
33
28

>  <PUBCHEM_MMFF94_PARTIAL_CHARGES>  (1) 
23
1 -0.08
12 0.06
13 0.06
16 0.12
17 0.12
18 0.57
19 0.57
2 -0.08
20 0.08
21 0.08
22 0.08
23 0.09
26 0.63
3 -0.08
39 0.37
4 -0.57
40 0.37
47 0.5
5 -0.57
6 -0.65
7 -0.57
8 -0.55
9 -0.55

>  <PUBCHEM_EFFECTIVE_ROTOR_COUNT>  (1) 
11

>  <PUBCHEM_PHARMACOPHORE_FEATURES>  (1) 
13
1 1 hydrophobe
1 2 hydrophobe
1 24 hydrophobe
1 25 hydrophobe
1 3 hydrophobe
1 4 acceptor
1 5 acceptor
1 6 acceptor
1 7 acceptor
1 8 donor
1 9 donor
3 6 7 26 anion
6 16 17 20 21 22 23 rings

>  <PUBCHEM_HEAVY_ATOM_COUNT>  (1) 
26

>  <PUBCHEM_ATOM_DEF_STEREO_COUNT>  (1) 
0

>  <PUBCHEM_ATOM_UDEF_STEREO_COUNT>  (1) 
0

>  <PUBCHEM_BOND_DEF_STEREO_COUNT>  (1) 
0

>  <PUBCHEM_BOND_UDEF_STEREO_COUNT>  (1) 
0

>  <PUBCHEM_ISOTOPIC_ATOM_COUNT>  (1) 
0

>  <PUBCHEM_COMPONENT_COUNT>  (1) 
1

>  <PUBCHEM_CACTVS_TAUTO_COUNT>  (1) 
3

>  <PUBCHEM_CONFORMER_ID>  (1) 
0000BFB700000001

>  <PUBCHEM_MMFF94_ENERGY>  (1) 
99.8284

>  <PUBCHEM_FEATURE_SELFOVERLAP>  (1) 
66.031

>  <PUBCHEM_SHAPE_FINGERPRINT>  (1) 
10050765 1 18410572885651152403
10493431 412 18409731793757794165
10675989 125 18268716000222409164
10937287 8 18411419513893452937
1100329 8 18267015068366220010
11135609 127 18122054301106247733
12107183 9 18335125485481799856
12390115 104 18341341092404491136
12788726 201 17686635936020520030
13140716 1 18336824195516693987
13248334 5 18122624946564558986
13540713 5 18338497703711565371
13955234 65 18120097174222790379
14251764 75 18410856538434576081
14790565 3 18339644430078064328
15420108 30 18336256916399222780
15439362 3 18411420584168484916
15927050 60 18411418444990642886
16087824 20 18123185977775985743
19427546 62 18337391522605753083
19784866 34 18411416194147932069
22311459 1 18049719912613781834
2334 1 18410847797912618475
23402539 116 17761487398401605382
23522609 53 17559400133677377897
23557571 272 17984711271106028644
23558518 356 18334011739283456203
23559900 14 17977946783688196099
23929065 36 17838600503516414280
283562 15 18265889349449383927
350125 39 18121778335738413072
3627633 1 17690280834014773422
4073 2 18335704889671411049
5219985 13 18409448085350799036
6327066 14 18409445903470638653
77188 2 17401767423881729439
9896288 288 18190183575413556530
9999458 23 18192151490773871247

>  <PUBCHEM_SHAPE_MULTIPOLES>  (1) 
537.43
13.63
7.42
0.96
0.15
5.12
-0.01
-29.08
-0.03
-0.05
-0.04
-0.02
0.27
-1.85

>  <PUBCHEM_SHAPE_SELFOVERLAP>  (1) 
1029.365

>  <PUBCHEM_SHAPE_VOLUME>  (1) 
335.3

>  <PUBCHEM_COORDINATE_TYPE>  (1) 
2
5
10

$$$$
