49088
     RDKit          3D

 23 24  0  0  1  0  0  0  0  0999 V2000
    1.7049   -1.4914   -0.2465 O   0  0  0  0  0  0  0  0  0  0  0  0
    3.5437   -2.7107    0.4104 O   0  0  0  0  0  0  0  0  0  0  0  0
   -2.5073   -0.9897   -0.1151 N   0  0  0  0  0  0  0  0  0  0  0  0
   -2.9771    0.3048    0.4302 C   0  0  0  0  0  0  0  0  0  0  0  0
   -2.0878    1.4829    0.0077 C   0  0  0  0  0  0  0  0  0  0  0  0
   -4.4155    0.5950   -0.0441 C   0  0  0  0  0  0  0  0  0  0  0  0
   -5.3721   -0.5342    0.3160 C   0  0  0  0  0  0  0  0  0  0  0  0
   -3.4018   -2.0911    0.2832 C   0  0  0  0  0  0  0  0  0  0  0  0
   -4.8333   -1.8609   -0.1957 C   0  0  0  0  0  0  0  0  0  0  0  0
   -2.5538    2.8019    0.6561 C   0  0  0  0  0  0  0  0  0  0  0  0
   -2.0667    1.6518   -1.5246 C   0  0  0  0  0  0  0  0  0  0  0  0
   -1.1379   -1.3097    0.2982 C   0  0  0  0  0  0  0  0  0  0  0  0
   -0.5083   -2.2997   -0.6764 C   0  0  0  0  0  0  0  0  0  0  0  0
   -2.5332    2.7824    2.1783 C   0  0  0  0  0  0  0  0  0  0  0  0
   -1.1997    2.8067   -2.0067 C   0  0  0  0  0  0  0  0  0  0  0  0
    0.9093   -2.6685   -0.2606 C   0  0  0  0  0  0  0  0  0  0  0  0
    3.0097   -1.6548    0.1084 C   0  0  0  0  0  0  0  0  0  0  0  0
    3.7287   -0.3559    0.0855 C   0  0  0  0  0  0  0  0  0  0  0  0
    5.0819   -0.3019    0.4196 C   0  0  0  0  0  0  0  0  0  0  0  0
    3.0513    0.8102   -0.2708 C   0  0  0  0  0  0  0  0  0  0  0  0
    5.7576    0.9182    0.3979 C   0  0  0  0  0  0  0  0  0  0  0  0
    3.7271    2.0303   -0.2927 C   0  0  0  0  0  0  0  0  0  0  0  0
    5.0803    2.0842    0.0417 C   0  0  0  0  0  0  0  0  0  0  0  0
  1 16  1  0
  1 17  1  0
  2 17  2  0
  3  4  1  0
  3  8  1  0
  3 12  1  0
  4  5  1  0
  4  6  1  0
  5 10  1  0
  5 11  1  0
  6  7  1  0
  7  9  1  0
  8  9  1  0
 10 14  1  0
 11 15  1  0
 12 13  1  0
 13 16  1  0
 17 18  1  0
 18 19  2  0
 18 20  1  0
 19 21  1  0
 20 22  2  0
 21 23  2  0
 22 23  1  0
M  END
>  <PUBCHEM_COMPOUND_CID>  (1) 
49088

>  <PUBCHEM_CONFORMER_RMSD>  (1) 
1

>  <PUBCHEM_CONFORMER_DIVERSEORDER>  (1) 
1
19
22
197
61
100
4
63
193
117
137
126
54
142
111
172
55
2
147
168
235
58
71
20
52
136
120
244
191
156
248
225
112
171
107
181
10
231
5
92
177
250
128
60
207
56
25
188
26
203
49
148
85
185
223
157
78
182
110
118
41
44
14
57
83
30
246
94
106
234
53
125
29
233
129
119
170
212
74
242
132
153
46
139
238
81
169
121
204
95
166
73
249
115
104
34
47
18
232
123
196
108
140
21
45
133
33
228
37
65
201
103
174
67
99
245
187
101
160
183
124
241
102
206
158
116
154
152
236
62
122
162
72
211
161
189
105
227
209
8
218
51
3
48
64
214
144
24
114
146
213
229
210
251
39
113
11
208
221
239
127
190
6
23
35
145
69
192
77
31
82
98
87
198
68
237
12
224
163
40
205
164
159
240
59
36
43
247
17
38
80
155
7
79
32
131
141
200
226
230
84
202
16
217
96
70
97
151
27
199
178
184
243
173
175
13
135
180
42
91
138
9
150
89
143
90
76
15
149
165
215
50
220
28
130
109
75
186
222
179
194
93
66
88
167
176
216
219
134
195
86

>  <PUBCHEM_MMFF94_PARTIAL_CHARGES>  (1) 
19
1 -0.43
12 0.27
16 0.28
17 0.63
18 0.09
19 -0.15
2 -0.57
20 -0.15
21 -0.15
22 -0.15
23 -0.15
3 -0.81
4 0.27
50 0.15
51 0.15
52 0.15
53 0.15
54 0.15
8 0.27

>  <PUBCHEM_EFFECTIVE_ROTOR_COUNT>  (1) 
10.2

>  <PUBCHEM_PHARMACOPHORE_FEATURES>  (1) 
6
1 14 hydrophobe
1 15 hydrophobe
1 2 acceptor
1 3 cation
6 18 19 20 21 22 23 rings
6 3 4 6 7 8 9 rings

>  <PUBCHEM_HEAVY_ATOM_COUNT>  (1) 
23

>  <PUBCHEM_ATOM_DEF_STEREO_COUNT>  (1) 
0

>  <PUBCHEM_ATOM_UDEF_STEREO_COUNT>  (1) 
1

>  <PUBCHEM_BOND_DEF_STEREO_COUNT>  (1) 
0

>  <PUBCHEM_BOND_UDEF_STEREO_COUNT>  (1) 
0

>  <PUBCHEM_ISOTOPIC_ATOM_COUNT>  (1) 
0

>  <PUBCHEM_COMPONENT_COUNT>  (1) 
1

>  <PUBCHEM_CACTVS_TAUTO_COUNT>  (1) 
1

>  <PUBCHEM_CONFORMER_ID>  (1) 
0000BFC000000001

>  <PUBCHEM_MMFF94_ENERGY>  (1) 
44.1834

>  <PUBCHEM_FEATURE_SELFOVERLAP>  (1) 
30.446

>  <PUBCHEM_SHAPE_FINGERPRINT>  (1) 
10670039 82 18335434482397894876
11578080 2 14187920406103218433
11595378 159 17676752215639762144
12107183 9 17834677097967444674
12596602 18 17458902755692897258
12633257 1 18049163263371569864
12925494 130 18268987579737330297
12978246 48 18411979174366428808
13402501 40 18410009974652584464
14251764 38 18340772537766493146
14341114 176 18408889516416720722
15196674 1 18410855455917837382
15840311 113 17983879795951012433
15961568 22 18334017220072325652
17844677 252 18270408187283045466
17974551 9 15435378842776490457
21315764 268 18336537301055795792
21623110 236 18411142416005706585
21652331 79 18409165532336920006
21673915 165 18409449197957883276
23559900 14 18124313796694121215
245318 6 17752501003551715452
350125 39 18410292519329125582
392239 28 18272378619525429137
474144 1 17460613642872348772
5104073 3 18334301924875317347
57527585 21 17703216305322568021

>  <PUBCHEM_SHAPE_MULTIPOLES>  (1) 
456.61
12.52
3.83
1.2
8.77
0.43
-0.06
0.94
1.94
-0.81
-0.02
-0.94
1.25
-0.53

>  <PUBCHEM_SHAPE_SELFOVERLAP>  (1) 
922.286

>  <PUBCHEM_SHAPE_VOLUME>  (1) 
266.6

>  <PUBCHEM_COORDINATE_TYPE>  (1) 
2
5
10

$$$$
