49081
     RDKit          3D

 23 24  0  0  1  0  0  0  0  0999 V2000
   -4.1507    2.1841   -0.0772 O   0  0  0  0  0  0  0  0  0  0  0  0
   -5.5295    0.8549    1.2146 O   0  0  0  0  0  0  0  0  0  0  0  0
    2.5003   -0.7463    0.1202 O   0  0  0  0  0  0  0  0  0  0  0  0
    4.0433   -1.9004    1.3798 O   0  0  0  0  0  0  0  0  0  0  0  0
   -2.2105   -1.7531   -0.4217 N   0  0  0  0  0  0  0  0  0  0  0  0
   -4.0762   -0.1257   -0.4347 C   0  0  0  0  0  0  0  0  0  0  0  0
   -2.8062   -0.6052    0.2773 C   0  0  0  0  0  0  0  0  0  0  0  0
   -5.0883   -1.2601   -0.5832 C   0  0  0  0  0  0  0  0  0  0  0  0
   -4.4332   -2.4738   -1.2332 C   0  0  0  0  0  0  0  0  0  0  0  0
   -3.1547   -2.8766   -0.4973 C   0  0  0  0  0  0  0  0  0  0  0  0
   -0.9727   -2.1683    0.2379 C   0  0  0  0  0  0  0  0  0  0  0  0
   -4.6842    1.0016    0.3421 C   0  0  0  0  0  0  0  0  0  0  0  0
    0.1682   -1.2281   -0.1373 C   0  0  0  0  0  0  0  0  0  0  0  0
    1.4769   -1.6482    0.5180 C   0  0  0  0  0  0  0  0  0  0  0  0
   -4.6464    3.3517    0.5855 C   0  0  0  0  0  0  0  0  0  0  0  0
   -3.9610    4.5732    0.0109 C   0  0  0  0  0  0  0  0  0  0  0  0
    3.7416   -0.9883    0.6257 C   0  0  0  0  0  0  0  0  0  0  0  0
    4.7154    0.0205    0.1376 C   0  0  0  0  0  0  0  0  0  0  0  0
    6.0494   -0.0461    0.5398 C   0  0  0  0  0  0  0  0  0  0  0  0
    4.2966    1.0348   -0.7236 C   0  0  0  0  0  0  0  0  0  0  0  0
    6.9645    0.9014    0.0811 C   0  0  0  0  0  0  0  0  0  0  0  0
    5.2118    1.9823   -1.1824 C   0  0  0  0  0  0  0  0  0  0  0  0
    6.5456    1.9156   -0.7800 C   0  0  0  0  0  0  0  0  0  0  0  0
  1 12  1  0
  1 15  1  0
  2 12  2  0
  3 14  1  0
  3 17  1  0
  4 17  2  0
  5  7  1  0
  5 10  1  0
  5 11  1  0
  6  7  1  0
  6  8  1  0
  6 12  1  0
  8  9  1  0
  9 10  1  0
 11 13  1  0
 13 14  1  0
 15 16  1  0
 17 18  1  0
 18 19  2  0
 18 20  1  0
 19 21  1  0
 20 22  2  0
 21 23  2  0
 22 23  1  0
M  END
>  <PUBCHEM_COMPOUND_CID>  (1) 
49081

>  <PUBCHEM_CONFORMER_RMSD>  (1) 
1

>  <PUBCHEM_CONFORMER_DIVERSEORDER>  (1) 
1
66
178
139
172
153
28
19
123
90
47
44
129
159
73
60
146
94
45
46
162
65
121
77
163
184
67
174
75
147
161
84
131
72
156
157
83
96
126
87
80
49
148
179
128
124
10
76
2
54
42
30
59
137
145
171
141
113
55
180
17
24
165
68
51
168
62
181
88
11
22
160
6
43
4
104
61
117
92
101
21
25
169
64
185
40
12
130
98
78
164
120
38
154
35
23
7
119
8
3
16
155
33
134
89
79
9
109
20
111
107
135
14
18
48
132
13
127
81
41
175
32
5
95
140
52
50
106
69
71
56
102
63
26
70
31
118
103
93
34
114
151
133
112
170
27
86
57
115
138
144
183
58
15
39
136
37
82
108
74
36
116
99
173
167
97
149
150
142
53
152
182
91
110
122
143
29
166
100
177
158
125
85
176
105

>  <PUBCHEM_MMFF94_PARTIAL_CHARGES>  (1) 
24
1 -0.43
10 0.27
11 0.27
12 0.66
14 0.28
15 0.28
17 0.63
18 0.09
19 -0.15
2 -0.57
20 -0.15
21 -0.15
22 -0.15
23 -0.15
3 -0.43
4 -0.57
44 0.15
45 0.15
46 0.15
47 0.15
48 0.15
5 -0.81
6 0.06
7 0.27

>  <PUBCHEM_EFFECTIVE_ROTOR_COUNT>  (1) 
10.2

>  <PUBCHEM_PHARMACOPHORE_FEATURES>  (1) 
5
1 2 acceptor
1 4 acceptor
1 5 cation
6 18 19 20 21 22 23 rings
6 5 6 7 8 9 10 rings

>  <PUBCHEM_HEAVY_ATOM_COUNT>  (1) 
23

>  <PUBCHEM_ATOM_DEF_STEREO_COUNT>  (1) 
0

>  <PUBCHEM_ATOM_UDEF_STEREO_COUNT>  (1) 
1

>  <PUBCHEM_BOND_DEF_STEREO_COUNT>  (1) 
0

>  <PUBCHEM_BOND_UDEF_STEREO_COUNT>  (1) 
0

>  <PUBCHEM_ISOTOPIC_ATOM_COUNT>  (1) 
0

>  <PUBCHEM_COMPONENT_COUNT>  (1) 
1

>  <PUBCHEM_CACTVS_TAUTO_COUNT>  (1) 
1

>  <PUBCHEM_CONFORMER_ID>  (1) 
0000BFB900000001

>  <PUBCHEM_MMFF94_ENERGY>  (1) 
37.4885

>  <PUBCHEM_FEATURE_SELFOVERLAP>  (1) 
25.372

>  <PUBCHEM_SHAPE_FINGERPRINT>  (1) 
100830 2 18338808792609276920
10087517 78 18410290328563729317
10595046 47 18336823186478921546
10670039 82 18341609347461302145
10912923 1 18261662749052398802
11101153 10 18266738180830734797
11315621 246 17416395674839479895
11761917 142 18342448228143375168
12107183 9 18048024178168947290
12596602 18 17603586318450355787
13167372 99 18408039611703982890
13785724 45 17832135031981257418
14251764 75 17982460291642166593
14429114 114 18266177429996287404
14784336 7 17760651769026244053
14790565 3 18409450301885674106
15183329 4 18335982060367847116
15289351 153 18266732671327353496
15348495 7 11819272282681806582
15419008 145 18114731648048603328
155225 5 18341613646803505465
15604295 49 18056756758117225760
16126227 98 18201164235654382881
16992828 155 18189047621405376085
17913733 40 15791725295977579122
21302155 148 18338239262807844173
21774942 28 18413672427232978024
22061861 79 14836128783895337030
22122407 14 18261120724548512424
2838139 119 18411136957139027640
328310 630 17968098685117481606
397830 11 12324527601471990062
445580 204 18410013273625161856
4487111 67 18267866073329031681
5104073 3 17603584145118361106
6299153 45 18336262320116993122
6327066 14 18266454301205478197
636775 72 18267862964627011440
6608658 132 18270951440774287351
7062679 6 18410576197297076406
7808743 9 18340767053304181225
9982175 49 17750251333868359572

>  <PUBCHEM_SHAPE_MULTIPOLES>  (1) 
444.87
19.39
4.21
1.01
19.69
4.45
-0.03
10.24
-1.02
-7.71
-0.16
0.22
-0.1
-3.31

>  <PUBCHEM_SHAPE_SELFOVERLAP>  (1) 
908.052

>  <PUBCHEM_SHAPE_VOLUME>  (1) 
256.5

>  <PUBCHEM_COORDINATE_TYPE>  (1) 
2
5
10

$$$$
