49090
     RDKit          3D

 19 19  0  0  0  0  0  0  0  0999 V2000
   -5.0004    0.5596    0.9195 S   0  0  0  0  0  0  0  0  0  0  0  0
    1.0791   -1.1154    0.1129 O   0  0  0  0  0  0  0  0  0  0  0  0
    0.3521    0.4942    1.5893 O   0  0  0  0  0  0  0  0  0  0  0  0
    4.4120    0.4554    0.0110 N   0  0  0  0  0  0  0  0  0  0  0  0
    3.0281    0.1825   -0.3753 C   0  0  0  0  0  0  0  0  0  0  0  0
    5.2220   -0.7572   -0.0991 C   0  0  0  0  0  0  0  0  0  0  0  0
    4.9730    1.5219   -0.8175 C   0  0  0  0  0  0  0  0  0  0  0  0
    2.4258   -0.8954    0.5117 C   0  0  0  0  0  0  0  0  0  0  0  0
    6.6495   -0.5072    0.3568 C   0  0  0  0  0  0  0  0  0  0  0  0
    4.1434    2.7906   -0.7152 C   0  0  0  0  0  0  0  0  0  0  0  0
    0.1389   -0.3505    0.7335 C   0  0  0  0  0  0  0  0  0  0  0  0
   -1.2199   -0.6762    0.2315 C   0  0  0  0  0  0  0  0  0  0  0  0
   -2.3036    0.0040    0.7483 C   0  0  0  0  0  0  0  0  0  0  0  0
   -3.5795   -0.3011    0.2743 C   0  0  0  0  0  0  0  0  0  0  0  0
   -1.3562   -1.6480   -0.7385 C   0  0  0  0  0  0  0  0  0  0  0  0
   -3.7437   -1.2798   -0.7059 C   0  0  0  0  0  0  0  0  0  0  0  0
   -2.6321   -1.9532   -1.2124 C   0  0  0  0  0  0  0  0  0  0  0  0
   -5.6721    1.3367   -0.5770 C   0  0  0  0  0  0  0  0  0  0  0  0
   -6.9166    2.1392   -0.2480 C   0  0  0  0  0  0  0  0  0  0  0  0
  1 14  1  0
  1 18  1  0
  2  8  1  0
  2 11  1  0
  3 11  2  0
  4  5  1  0
  4  6  1  0
  4  7  1  0
  5  8  1  0
  6  9  1  0
  7 10  1  0
 11 12  1  0
 12 13  2  0
 12 15  1  0
 13 14  1  0
 14 16  2  0
 15 17  2  0
 16 17  1  0
 18 19  1  0
M  END
>  <PUBCHEM_COMPOUND_CID>  (1) 
49090

>  <PUBCHEM_CONFORMER_RMSD>  (1) 
1

>  <PUBCHEM_CONFORMER_DIVERSEORDER>  (1) 
1
436
375
416
322
53
149
492
20
19
353
598
513
374
391
55
414
335
175
262
301
299
346
428
25
424
574
228
196
12
298
165
330
438
263
422
594
544
52
188
5
506
434
10
431
564
160
56
285
15
189
514
420
393
84
538
469
448
271
29
392
408
561
240
50
467
223
418
91
45
26
257
182
357
112
121
599
3
212
162
415
75
206
113
484
171
385
140
44
54
4
17
7
265
476
70
2
21
57
61
24
345
186
571
18
242
107
233
232
83

>  <PUBCHEM_MMFF94_PARTIAL_CHARGES>  (1) 
20
1 -0.33
11 0.63
12 0.09
13 -0.15
14 0.1
15 -0.15
16 -0.15
17 -0.15
18 0.23
2 -0.43
3 -0.57
34 0.15
35 0.15
36 0.15
37 0.15
4 -0.81
5 0.27
6 0.27
7 0.27
8 0.28

>  <PUBCHEM_EFFECTIVE_ROTOR_COUNT>  (1) 
9

>  <PUBCHEM_PHARMACOPHORE_FEATURES>  (1) 
4
1 19 hydrophobe
1 3 acceptor
1 4 cation
6 12 13 14 15 16 17 rings

>  <PUBCHEM_HEAVY_ATOM_COUNT>  (1) 
19

>  <PUBCHEM_ATOM_DEF_STEREO_COUNT>  (1) 
0

>  <PUBCHEM_ATOM_UDEF_STEREO_COUNT>  (1) 
0

>  <PUBCHEM_BOND_DEF_STEREO_COUNT>  (1) 
0

>  <PUBCHEM_BOND_UDEF_STEREO_COUNT>  (1) 
0

>  <PUBCHEM_ISOTOPIC_ATOM_COUNT>  (1) 
0

>  <PUBCHEM_COMPONENT_COUNT>  (1) 
1

>  <PUBCHEM_CACTVS_TAUTO_COUNT>  (1) 
1

>  <PUBCHEM_CONFORMER_ID>  (1) 
0000BFC200000001

>  <PUBCHEM_MMFF94_ENERGY>  (1) 
39.5572

>  <PUBCHEM_FEATURE_SELFOVERLAP>  (1) 
20.297

>  <PUBCHEM_SHAPE_FINGERPRINT>  (1) 
10014705 185 18413110588947748315
11315181 36 17132116870542307874
12236239 1 18341612638013035738
12616971 3 18335699472978938318
13167372 99 18334858303402115980
13533116 47 16588296143069135080
13540713 4 16986567988239677755
14251752 14 18342454820310563939
15048467 5 18335701615961747737
15183329 4 18202007616020893852
17834072 8 17418369186636366187
17959699 21 18337956791535585000
18186145 218 17241040015896835538
18335252 114 18335976484978473533
19427546 20 18271241750789200751
19784866 240 11887952168688430665
20281389 69 18408886248020338217
20511986 3 18201991166833836960
21033648 29 16370992053674048622
21150785 3 14764337241442808817
22079108 93 17385729131625040867
2215653 11 16487256560256808598
22224240 67 15863794989545066937
23402539 116 18131067147688243742
23557571 272 16486707879049901992
23559900 14 17060328656584121042
2838139 119 18334289834753505349
300161 21 18131064926984618250
3004659 81 18131074805863203318
3009799 131 16845566504696091616
3472631 163 18412548721294580605
3759504 43 18410013247840111955
5104073 3 17677046975235175912
559249 180 18201717357931352774
57724786 102 17096377292458055996
59682541 35 13046240376444277117
59755656 520 17240483602509365755
633830 44 18113896117478321810
67856867 119 18200308970215836712

>  <PUBCHEM_SHAPE_MULTIPOLES>  (1) 
378.14
16.71
2.16
1.08
3.07
1.13
0.07
8.98
-1.55
-0.45
-0.85
-0.41
-0.04
-1.18

>  <PUBCHEM_SHAPE_SELFOVERLAP>  (1) 
740.796

>  <PUBCHEM_SHAPE_VOLUME>  (1) 
229.7

>  <PUBCHEM_COORDINATE_TYPE>  (1) 
2
5
10

$$$$
