49099
     RDKit          3D

  9  8  0  0  0  0  0  0  0  0999 V2000
   -3.5319   -0.9217   -0.1908 Cl  0  0  0  0  0  0  0  0  0  0  0  0
   -2.3078    1.7159   -0.4299 Cl  0  0  0  0  0  0  0  0  0  0  0  0
    2.3764    0.6371    0.1924 O   0  0  0  0  0  0  0  0  0  0  0  0
    1.3655   -1.3145   -0.4741 O   0  0  0  0  0  0  0  0  0  0  0  0
    0.2259    0.3006    0.7405 N   0  0  0  0  0  0  0  0  0  0  0  0
   -1.0529   -0.3663    0.8260 C   0  0  0  0  0  0  0  0  0  0  0  0
   -1.9927   -0.0346   -0.3286 C   0  0  0  0  0  0  0  0  0  0  0  0
    1.3247   -0.2304    0.0983 C   0  0  0  0  0  0  0  0  0  0  0  0
    3.5928    0.2139   -0.4338 C   0  0  0  0  0  0  0  0  0  0  0  0
  1  7  1  0
  2  7  1  0
  3  8  1  0
  3  9  1  0
  4  8  2  0
  5  6  1  0
  5  8  1  0
  6  7  1  0
M  END
>  <PUBCHEM_COMPOUND_CID>  (1) 
49099

>  <PUBCHEM_CONFORMER_RMSD>  (1) 
0.6

>  <PUBCHEM_CONFORMER_DIVERSEORDER>  (1) 
1
12
4
7
13
2
3
5
6
8
11
10
9

>  <PUBCHEM_MMFF94_PARTIAL_CHARGES>  (1) 
10
1 -0.29
13 0.37
2 -0.29
3 -0.43
4 -0.57
5 -0.73
6 0.3
7 0.58
8 0.78
9 0.28

>  <PUBCHEM_EFFECTIVE_ROTOR_COUNT>  (1) 
4

>  <PUBCHEM_PHARMACOPHORE_FEATURES>  (1) 
2
1 4 acceptor
1 5 donor

>  <PUBCHEM_HEAVY_ATOM_COUNT>  (1) 
9

>  <PUBCHEM_ATOM_DEF_STEREO_COUNT>  (1) 
0

>  <PUBCHEM_ATOM_UDEF_STEREO_COUNT>  (1) 
0

>  <PUBCHEM_BOND_DEF_STEREO_COUNT>  (1) 
0

>  <PUBCHEM_BOND_UDEF_STEREO_COUNT>  (1) 
0

>  <PUBCHEM_ISOTOPIC_ATOM_COUNT>  (1) 
0

>  <PUBCHEM_COMPONENT_COUNT>  (1) 
1

>  <PUBCHEM_CACTVS_TAUTO_COUNT>  (1) 
2

>  <PUBCHEM_CONFORMER_ID>  (1) 
0000BFCB00000001

>  <PUBCHEM_MMFF94_ENERGY>  (1) 
6.9919

>  <PUBCHEM_FEATURE_SELFOVERLAP>  (1) 
10.148

>  <PUBCHEM_SHAPE_FINGERPRINT>  (1) 
11062470 55 13262670461052433407
12162725 195 17967534584007420484
12897270 3 18413384354210229853
12932764 1 17846767512325173435
14325111 11 18408885118396161138
14390081 3 18260265230896723737
15310529 11 18342171142305839295
15775835 57 16732975389036541069
20653085 51 18119254960921422681
21293036 1 18130791200175999012
23402539 116 18114170977962790407
23552423 10 18191583051973356907

>  <PUBCHEM_SHAPE_MULTIPOLES>  (1) 
172.24
5.88
1.31
0.81
1.66
0.41
0.06
-0.02
-1.2
-0.94
-0.19
-0.05
-0.03
0.16

>  <PUBCHEM_SHAPE_SELFOVERLAP>  (1) 
300.193

>  <PUBCHEM_SHAPE_VOLUME>  (1) 
115.2

>  <PUBCHEM_COORDINATE_TYPE>  (1) 
2
5
10

$$$$
