49091
     RDKit          3D

 14 14  0  0  1  0  0  0  0  0999 V2000
   -1.7011    1.0980    1.4441 O   0  0  0  0  0  0  0  0  0  0  0  0
    3.1587    1.7530    0.2113 O   0  0  0  0  0  0  0  0  0  0  0  0
    3.9660   -0.8020   -0.5270 O   0  0  0  0  0  0  0  0  0  0  0  0
   -2.5110   -0.5912   -0.0769 C   0  0  0  0  0  0  0  0  0  0  0  0
   -3.4291    0.3204   -0.9099 C   0  0  0  0  0  0  0  0  0  0  0  0
   -1.4240    0.2233    0.6247 C   0  0  0  0  0  0  0  0  0  0  0  0
   -3.3240   -1.3345    0.9823 C   0  0  0  0  0  0  0  0  0  0  0  0
    0.0087   -0.0457    0.3200 C   0  0  0  0  0  0  0  0  0  0  0  0
   -2.6698    1.0877   -1.9850 C   0  0  0  0  0  0  0  0  0  0  0  0
    0.9117    0.9908    0.4116 C   0  0  0  0  0  0  0  0  0  0  0  0
    0.3801   -1.3215   -0.0440 C   0  0  0  0  0  0  0  0  0  0  0  0
    2.2535    0.7387    0.1254 C   0  0  0  0  0  0  0  0  0  0  0  0
    1.7218   -1.5734   -0.3306 C   0  0  0  0  0  0  0  0  0  0  0  0
    2.6585   -0.5433   -0.2459 C   0  0  0  0  0  0  0  0  0  0  0  0
  1  6  2  0
  2 12  1  0
  3 14  1  0
  4  5  1  0
  4  6  1  0
  4  7  1  0
  5  9  1  0
  6  8  1  0
  8 10  2  0
  8 11  1  0
 10 12  1  0
 11 13  2  0
 12 14  2  0
 13 14  1  0
M  END
>  <PUBCHEM_COMPOUND_CID>  (1) 
49091

>  <PUBCHEM_CONFORMER_RMSD>  (1) 
0.6

>  <PUBCHEM_CONFORMER_DIVERSEORDER>  (1) 
1
22
35
33
7
16
36
24
12
19
6
28
26
11
30
31
17
13
37
34
27
9
8
20
14
32
3
18
25
29
5
15
21
10
23
2
4

>  <PUBCHEM_MMFF94_PARTIAL_CHARGES>  (1) 
16
1 -0.57
10 -0.15
11 -0.15
12 0.08
13 -0.15
14 0.08
2 -0.53
24 0.15
25 0.15
26 0.15
27 0.45
28 0.45
3 -0.53
4 0.06
6 0.42
8 0.09

>  <PUBCHEM_EFFECTIVE_ROTOR_COUNT>  (1) 
3

>  <PUBCHEM_PHARMACOPHORE_FEATURES>  (1) 
6
1 1 acceptor
1 2 donor
1 3 donor
1 7 hydrophobe
1 9 hydrophobe
6 8 10 11 12 13 14 rings

>  <PUBCHEM_HEAVY_ATOM_COUNT>  (1) 
14

>  <PUBCHEM_ATOM_DEF_STEREO_COUNT>  (1) 
0

>  <PUBCHEM_ATOM_UDEF_STEREO_COUNT>  (1) 
1

>  <PUBCHEM_BOND_DEF_STEREO_COUNT>  (1) 
0

>  <PUBCHEM_BOND_UDEF_STEREO_COUNT>  (1) 
0

>  <PUBCHEM_ISOTOPIC_ATOM_COUNT>  (1) 
0

>  <PUBCHEM_COMPONENT_COUNT>  (1) 
1

>  <PUBCHEM_CACTVS_TAUTO_COUNT>  (1) 
22

>  <PUBCHEM_CONFORMER_ID>  (1) 
0000BFC300000001

>  <PUBCHEM_MMFF94_ENERGY>  (1) 
32.0429

>  <PUBCHEM_FEATURE_SELFOVERLAP>  (1) 
30.45

>  <PUBCHEM_SHAPE_FINGERPRINT>  (1) 
10608611 8 18260823813063564533
12932764 1 17822013081762326851
13296908 3 18409449202062797091
13764800 53 15792305773967256909
14325111 11 18342182193077246472
15219456 202 18335137617877998685
16945 1 17846214488041205706
17844478 74 18188216497903770283
18175812 5 18260266360536289967
18186145 218 18408044000432624154
19422 9 17132121268351227455
200 152 17917703587380825591
20201158 50 18411418375838259575
20361792 2 16701722926579514461
20645477 56 17822006472261423389
20645477 70 18273213084136303343
21639500 275 18129089181798708792
22802520 49 18188483558738114213
23402539 116 17489868211582246268
23402655 69 18201999893648590149
23557571 272 17749115495617286695
25 1 18118395155887184757
25610 137 18271815678209083835
2748010 2 18197506323186489634
3248919 1 18272367542514420899
57812782 119 18260544549799695938
77492 1 17060621105096426383
8030462 33 17917990559836644833

>  <PUBCHEM_SHAPE_MULTIPOLES>  (1) 
270.51
6.27
1.59
1.22
0.69
0.04
0.16
-0.06
1.16
0.13
0.08
-1.01
-0.37
1.18

>  <PUBCHEM_SHAPE_SELFOVERLAP>  (1) 
558.424

>  <PUBCHEM_SHAPE_VOLUME>  (1) 
156.4

>  <PUBCHEM_COORDINATE_TYPE>  (1) 
2
5
10

$$$$
