49097
     RDKit          3D

 12 11  0  0  0  0  0  0  0  0999 V2000
   -5.1303   -0.4075   -0.4371 Cl  0  0  0  0  0  0  0  0  0  0  0  0
   -3.4814    1.9982   -0.3584 Cl  0  0  0  0  0  0  0  0  0  0  0  0
    0.9271    0.0940    0.4169 O   0  0  0  0  0  0  0  0  0  0  0  0
   -0.3518   -1.5902   -0.4783 O   0  0  0  0  0  0  0  0  0  0  0  0
   -1.3003    0.0861    0.8163 N   0  0  0  0  0  0  0  0  0  0  0  0
    3.2914    0.3958    0.1881 C   0  0  0  0  0  0  0  0  0  0  0  0
    4.5794   -0.1435   -0.4276 C   0  0  0  0  0  0  0  0  0  0  0  0
    2.0914   -0.4684   -0.1722 C   0  0  0  0  0  0  0  0  0  0  0  0
    5.7681    0.7463   -0.1012 C   0  0  0  0  0  0  0  0  0  0  0  0
   -2.6731   -0.3618    0.7662 C   0  0  0  0  0  0  0  0  0  0  0  0
   -0.2589   -0.5663    0.1907 C   0  0  0  0  0  0  0  0  0  0  0  0
   -3.4618    0.2174   -0.4036 C   0  0  0  0  0  0  0  0  0  0  0  0
  1 12  1  0
  2 12  1  0
  3  8  1  0
  3 11  1  0
  4 11  2  0
  5 10  1  0
  5 11  1  0
  6  7  1  0
  6  8  1  0
  7  9  1  0
 10 12  1  0
M  END
>  <PUBCHEM_COMPOUND_CID>  (1) 
49097

>  <PUBCHEM_CONFORMER_RMSD>  (1) 
0.8

>  <PUBCHEM_CONFORMER_DIVERSEORDER>  (1) 
1
99
97
60
117
92
131
102
98
108
45
52
34
74
136
28
79
83
112
62
10
82
149
58
6
96
3
141
116
146
72
129
12
48
59
111
145
150
81
144
93
147
114
89
77
24
49
109
2
104
134
55
128
126
69
119
41
120
20
148
88
57
132
7
86
35
47
103
70
142
29
140
101
11
50
115
46
118
5
39
106
61
9
65
133
36
121
42
78
25
43
124
113
27
26
91
51
66
94
110
130
33
138
16
75
73
64
17
63
40
127
15
135
80
122
107
90
18
68
37
105
143
137
31
53
76
21
123
30
139
71
87
32
100
38
125
14
54
67
85
8
13
23
4
44
19
84
22
56
95

>  <PUBCHEM_MMFF94_PARTIAL_CHARGES>  (1) 
10
1 -0.29
10 0.3
11 0.78
12 0.58
2 -0.29
24 0.37
3 -0.43
4 -0.57
5 -0.73
8 0.28

>  <PUBCHEM_EFFECTIVE_ROTOR_COUNT>  (1) 
7

>  <PUBCHEM_PHARMACOPHORE_FEATURES>  (1) 
3
1 4 acceptor
1 5 donor
1 9 hydrophobe

>  <PUBCHEM_HEAVY_ATOM_COUNT>  (1) 
12

>  <PUBCHEM_ATOM_DEF_STEREO_COUNT>  (1) 
0

>  <PUBCHEM_ATOM_UDEF_STEREO_COUNT>  (1) 
0

>  <PUBCHEM_BOND_DEF_STEREO_COUNT>  (1) 
0

>  <PUBCHEM_BOND_UDEF_STEREO_COUNT>  (1) 
0

>  <PUBCHEM_ISOTOPIC_ATOM_COUNT>  (1) 
0

>  <PUBCHEM_COMPONENT_COUNT>  (1) 
1

>  <PUBCHEM_CACTVS_TAUTO_COUNT>  (1) 
2

>  <PUBCHEM_CONFORMER_ID>  (1) 
0000BFC900000001

>  <PUBCHEM_MMFF94_ENERGY>  (1) 
4.3218

>  <PUBCHEM_FEATURE_SELFOVERLAP>  (1) 
15.223

>  <PUBCHEM_SHAPE_FINGERPRINT>  (1) 
10014705 185 18341611572813413712
114248 4 17775567550352498022
124424 183 10881404240461584151
14123238 8 18202565090022595654
14123255 352 18041274357811125237
14251718 22 18131349739113650382
14251764 75 17405995055092920241
14252887 29 13045940179921212856
14350574 20 17275101773428073835
15501527 16 18409733924330559425
15501527 24 17560797757797186623
17834076 25 16877660175464052746
18186145 218 17131539600814155955
187816 3 17203331121491115346
200 152 14979960267832420698
20300324 65 18410572873330233301
20645477 56 18334577923847495377
20645477 70 17489318438884324190
20767249 213 17822010934210119884
20828058 44 9295283945718288841
21293036 1 18060418014875608923
23402539 116 16200157568911997696
23402655 69 17917711253749970132
23557571 272 18273501152320368725
23590187 156 18410569612901130560
26918003 58 8214144053409275260
366044 4 18343584057528763006
42788 4 18408604764632761536

>  <PUBCHEM_SHAPE_MULTIPOLES>  (1) 
233.97
12.26
1.29
0.79
8.64
0.48
0.04
3.01
-1.95
-1.13
-0.17
-0.26
-0.04
0.18

>  <PUBCHEM_SHAPE_SELFOVERLAP>  (1) 
413.748

>  <PUBCHEM_SHAPE_VOLUME>  (1) 
153.5

>  <PUBCHEM_COORDINATE_TYPE>  (1) 
2
5
10

$$$$
