49108
     RDKit          3D

 22 23  0  0  1  0  0  0  0  0999 V2000
   -0.8893   -1.3062   -0.7662 O   0  0  0  0  0  0  0  0  0  0  0  0
   -1.0236   -1.6564    1.5183 O   0  0  0  0  0  0  0  0  0  0  0  0
   -0.1734    1.5071    1.0998 N   0  0  0  0  0  0  0  0  0  0  0  0
   -3.0311    1.6179   -0.3124 N   0  0  0  0  0  0  0  0  0  0  0  0
    0.7027   -2.6254    0.2973 N   0  0  0  0  0  0  0  0  0  0  0  0
    1.1579    2.1203    1.2183 C   0  0  0  0  0  0  0  0  0  0  0  0
   -0.6214    1.4911   -0.2687 C   0  0  0  0  0  0  0  0  0  0  0  0
    2.1736    1.4290    0.3554 C   0  0  0  0  0  0  0  0  0  0  0  0
   -1.9462    0.8188   -0.4225 C   0  0  0  0  0  0  0  0  0  0  0  0
   -1.1238    2.2227    1.9640 C   0  0  0  0  0  0  0  0  0  0  0  0
   -2.0421   -0.5213   -0.6595 C   0  0  0  0  0  0  0  0  0  0  0  0
    2.9022    0.3633    0.8706 C   0  0  0  0  0  0  0  0  0  0  0  0
    2.3750    1.8613   -0.9503 C   0  0  0  0  0  0  0  0  0  0  0  0
   -3.2643   -1.1250   -0.7984 C   0  0  0  0  0  0  0  0  0  0  0  0
    3.8458   -0.2791    0.0689 C   0  0  0  0  0  0  0  0  0  0  0  0
    3.3184    1.2187   -1.7519 C   0  0  0  0  0  0  0  0  0  0  0  0
    4.0538    0.1486   -1.2423 C   0  0  0  0  0  0  0  0  0  0  0  0
   -4.2349    1.0183   -0.4501 C   0  0  0  0  0  0  0  0  0  0  0  0
   -4.4041   -0.3355   -0.6915 C   0  0  0  0  0  0  0  0  0  0  0  0
   -0.4513   -1.8479    0.4459 C   0  0  0  0  0  0  0  0  0  0  0  0
    1.3043   -3.2708    1.4554 C   0  0  0  0  0  0  0  0  0  0  0  0
    1.3718   -2.8493   -0.9801 C   0  0  0  0  0  0  0  0  0  0  0  0
  1 11  1  0
  1 20  1  0
  2 20  2  0
  3  6  1  0
  3  7  1  0
  3 10  1  0
  4  9  2  0
  4 18  1  0
  5 20  1  0
  5 21  1  0
  5 22  1  0
  6  8  1  0
  7  9  1  0
  8 12  2  0
  8 13  1  0
  9 11  1  0
 11 14  2  0
 12 15  1  0
 13 16  2  0
 14 19  1  0
 15 17  2  0
 16 17  1  0
 18 19  2  0
M  END
>  <PUBCHEM_COMPOUND_CID>  (1) 
49108

>  <PUBCHEM_CONFORMER_RMSD>  (1) 
0.8

>  <PUBCHEM_CONFORMER_DIVERSEORDER>  (1) 
13
156
12
208
73
87
80
27
115
43
146
98
168
112
207
22
164
150
86
132
17
185
45
110
131
74
66
57
26
194
102
121
83
62
126
171
188
186
201
24
90
159
128
81
29
169
3
134
33
119
154
136
30
54
61
76
52
157
210
124
118
147
176
142
36
170
68
63
120
198
160
202
103
137
162
113
151
8
84
117
143
133
122
71
59
51
116
94
25
19
75
99
106
38
108
78
85
130
1
18
35
64
97
196
200
67
139
165
70
14
125
69
16
127
10
182
48
42
189
49
34
95
144
172
92
65
100
205
89
2
96
166
23
91
4
129
187
178
183
11
114
31
72
7
5
32
192
175
88
174
15
104
55
199
50
6
44
206
141
105
181
21
155
93
149
123
184
77
39
109
79
177
167
209
173
180
153
101
179
107
111
58
40
47
138
203
158
135
193
161
37
28
56
148
53
60
197
204
41
152
82
20
195
9
46
190
191
145
163
140

>  <PUBCHEM_MMFF94_PARTIAL_CHARGES>  (1) 
30
1 -0.23
10 0.27
11 0.08
12 -0.15
13 -0.15
14 -0.15
15 -0.15
16 -0.15
17 -0.15
18 0.16
19 -0.15
2 -0.57
20 0.78
21 0.3
22 0.3
3 -0.81
30 0.15
31 0.15
32 0.15
33 0.15
34 0.15
35 0.15
36 0.15
37 0.15
4 -0.62
5 -0.66
6 0.41
7 0.41
8 -0.14
9 0.17

>  <PUBCHEM_EFFECTIVE_ROTOR_COUNT>  (1) 
7

>  <PUBCHEM_PHARMACOPHORE_FEATURES>  (1) 
5
1 2 acceptor
1 3 cation
1 4 acceptor
6 4 9 11 14 18 19 rings
6 8 12 13 15 16 17 rings

>  <PUBCHEM_HEAVY_ATOM_COUNT>  (1) 
22

>  <PUBCHEM_ATOM_DEF_STEREO_COUNT>  (1) 
0

>  <PUBCHEM_ATOM_UDEF_STEREO_COUNT>  (1) 
0

>  <PUBCHEM_BOND_DEF_STEREO_COUNT>  (1) 
0

>  <PUBCHEM_BOND_UDEF_STEREO_COUNT>  (1) 
0

>  <PUBCHEM_ISOTOPIC_ATOM_COUNT>  (1) 
0

>  <PUBCHEM_COMPONENT_COUNT>  (1) 
1

>  <PUBCHEM_CACTVS_TAUTO_COUNT>  (1) 
1

>  <PUBCHEM_CONFORMER_ID>  (1) 
0000BFD40000000D

>  <PUBCHEM_MMFF94_ENERGY>  (1) 
68.9553

>  <PUBCHEM_FEATURE_SELFOVERLAP>  (1) 
25.372

>  <PUBCHEM_SHAPE_FINGERPRINT>  (1) 
10062212 137 18340754984156266839
10906281 52 17843686814231757456
1100329 8 17335908880764520929
11370993 70 18261673783007498516
11458722 379 18412827979704032844
12035759 4 18200317597923938929
12156800 1 12305880150062302954
12363563 72 17489602181134489148
12592029 89 18187369787803169033
12596599 1 17346045587608910439
12788726 201 17988094360520435728
14787075 74 18335708290647348587
14840074 17 17387667489690312546
16752209 62 18341896294279192864
18186145 218 18411411847635877293
19591789 44 18268142244416062319
20645476 183 17969224619257292828
20832881 197 18131075952097017529
20905425 154 18198338451192522564
22907989 373 17973189470866473685
23227448 37 14057583334640138420
23419403 2 17317927622449334459
23526113 38 17843959471360547017
23559900 14 17911791380357498983
23566358 2 18126280840196466477
238 59 18409451401117811546
2637199 183 18186242844361620286
2748010 2 16251367692158274792
2818148 4 17700150819263685403
3323516 105 18343017809261517343
474 4 18186518787177984199
5845 1 12227813299876894163
59755656 215 18335972173786109927
598444 67 18121227729404845555
633830 44 18271800280941764517
81228 2 17184169086651636883
9709674 26 17983289614759903460

>  <PUBCHEM_SHAPE_MULTIPOLES>  (1) 
426.07
6.99
3.33
1.57
2
2.29
0.33
-1.54
-3.08
-0.93
1.13
-0.65
-0.2
-0.64

>  <PUBCHEM_SHAPE_SELFOVERLAP>  (1) 
894.14

>  <PUBCHEM_SHAPE_VOLUME>  (1) 
241.4

>  <PUBCHEM_COORDINATE_TYPE>  (1) 
2
5
10

$$$$
