49104
     RDKit          3D

 14 14  0  0  0  0  0  0  0  0999 V2000
   -0.6263    0.4433    0.7545 O   0  0  0  0  0  0  0  0  0  0  0  0
   -1.1220    0.1904   -1.4926 O   0  0  0  0  0  0  0  0  0  0  0  0
   -2.8427    0.2888    0.0692 N   0  0  0  0  0  0  0  0  0  0  0  0
    0.2078   -2.6736   -0.5180 N   0  0  0  0  0  0  0  0  0  0  0  0
    1.4265   -0.7277    0.3529 C   0  0  0  0  0  0  0  0  0  0  0  0
    0.7266    0.4570    0.3995 C   0  0  0  0  0  0  0  0  0  0  0  0
    0.7855   -2.0390    0.6673 C   0  0  0  0  0  0  0  0  0  0  0  0
    2.7752   -0.6954   -0.0019 C   0  0  0  0  0  0  0  0  0  0  0  0
    1.3052    1.6731    0.1096 C   0  0  0  0  0  0  0  0  0  0  0  0
    3.3892    0.5212   -0.3006 C   0  0  0  0  0  0  0  0  0  0  0  0
    2.6540    1.7053   -0.2451 C   0  0  0  0  0  0  0  0  0  0  0  0
   -1.5005    0.2977   -0.3267 C   0  0  0  0  0  0  0  0  0  0  0  0
   -3.8976    0.1458   -0.9239 C   0  0  0  0  0  0  0  0  0  0  0  0
   -3.2809    0.4133    1.4556 C   0  0  0  0  0  0  0  0  0  0  0  0
  1  6  1  0
  1 12  1  0
  2 12  2  0
  3 12  1  0
  3 13  1  0
  3 14  1  0
  4  7  1  0
  5  6  2  0
  5  7  1  0
  5  8  1  0
  6  9  1  0
  8 10  2  0
  9 11  2  0
 10 11  1  0
M  END
>  <PUBCHEM_COMPOUND_CID>  (1) 
49104

>  <PUBCHEM_CONFORMER_RMSD>  (1) 
0.6

>  <PUBCHEM_CONFORMER_DIVERSEORDER>  (1) 
1
21
15
26
9
10
24
31
14
17
13
30
12
20
3
16
18
2
28
29
25
4
22
5
23
6
27
19
11
7
8
32

>  <PUBCHEM_MMFF94_PARTIAL_CHARGES>  (1) 
20
1 -0.23
10 -0.15
11 -0.15
12 0.78
13 0.3
14 0.3
17 0.15
18 0.15
19 0.15
2 -0.57
20 0.15
27 0.36
28 0.36
3 -0.66
4 -0.99
5 -0.14
6 0.08
7 0.41
8 -0.15
9 -0.15

>  <PUBCHEM_EFFECTIVE_ROTOR_COUNT>  (1) 
4

>  <PUBCHEM_PHARMACOPHORE_FEATURES>  (1) 
4
1 2 acceptor
1 4 cation
1 4 donor
6 5 6 8 9 10 11 rings

>  <PUBCHEM_HEAVY_ATOM_COUNT>  (1) 
14

>  <PUBCHEM_ATOM_DEF_STEREO_COUNT>  (1) 
0

>  <PUBCHEM_ATOM_UDEF_STEREO_COUNT>  (1) 
0

>  <PUBCHEM_BOND_DEF_STEREO_COUNT>  (1) 
0

>  <PUBCHEM_BOND_UDEF_STEREO_COUNT>  (1) 
0

>  <PUBCHEM_ISOTOPIC_ATOM_COUNT>  (1) 
0

>  <PUBCHEM_COMPONENT_COUNT>  (1) 
1

>  <PUBCHEM_CACTVS_TAUTO_COUNT>  (1) 
1

>  <PUBCHEM_CONFORMER_ID>  (1) 
0000BFD000000001

>  <PUBCHEM_MMFF94_ENERGY>  (1) 
36.709

>  <PUBCHEM_FEATURE_SELFOVERLAP>  (1) 
20.297

>  <PUBCHEM_SHAPE_FINGERPRINT>  (1) 
1 1 18334292063519355814
10219947 1 18333733511343433260
107287 299 18113903745002460273
10980938 120 18411135801238800561
11471102 20 18335698321426608028
11578080 2 12397973963951852647
14251717 144 18410568470608777943
14911166 2 18410302419508441412
15219456 202 17821730520216957897
15309172 13 18336269019532446129
15775835 57 18261672661873133078
16752209 62 16916768670952321645
16945 1 18334857186457054314
17844478 74 17748831808289560109
18175812 5 17530965799806790477
18186145 218 18341620334109042524
19422 9 17846219946981438791
201361 129 18198920127330123841
20201158 50 18114461158806431723
20279233 1 17458063759685751593
20645477 70 18336256839390530943
21501502 16 18048032167102873276
21730867 7 18260547809685050849
23402539 116 18131349696501775852
23402655 69 18410567371287294789
23557571 272 16443355239067216823
25 1 18409173211864837920
2748010 2 18192724546969456010
3060560 45 18408595968149414678
474 4 17771611619333454432
528862 383 18337384946446424259
528886 8 18410570708413333288
53748568 43 17988927747515725165
77492 1 17846501417647559369
81228 2 17541936937282371098
8272917 22 18269276760169231893

>  <PUBCHEM_SHAPE_MULTIPOLES>  (1) 
266.41
5.73
1.93
1.07
3.65
1.17
0.01
-1.64
-0.35
-1.27
-0.05
0.9
-0.02
-0.21

>  <PUBCHEM_SHAPE_SELFOVERLAP>  (1) 
544.88

>  <PUBCHEM_SHAPE_VOLUME>  (1) 
154.8

>  <PUBCHEM_COORDINATE_TYPE>  (1) 
2
5
10

$$$$
