49112
     RDKit          3D

 20 21  0  0  0  0  0  0  0  0999 V2000
    1.6135   -0.4430    0.6673 O   0  0  0  0  0  0  0  0  0  0  0  0
    1.8779   -1.5272   -1.3596 O   0  0  0  0  0  0  0  0  0  0  0  0
    1.0922    2.1273    0.3106 N   0  0  0  0  0  0  0  0  0  0  0  0
    3.7642   -0.7513   -0.2420 N   0  0  0  0  0  0  0  0  0  0  0  0
   -0.5330    0.3282   -0.0796 C   0  0  0  0  0  0  0  0  0  0  0  0
    0.1314    1.5549   -0.6293 C   0  0  0  0  0  0  0  0  0  0  0  0
   -1.9196    0.1366   -0.1942 C   0  0  0  0  0  0  0  0  0  0  0  0
   -2.5025   -1.0370    0.3402 C   0  0  0  0  0  0  0  0  0  0  0  0
    0.2674   -0.6234    0.5529 C   0  0  0  0  0  0  0  0  0  0  0  0
   -1.6815   -1.9845    0.9732 C   0  0  0  0  0  0  0  0  0  0  0  0
   -0.3058   -1.7778    1.0780 C   0  0  0  0  0  0  0  0  0  0  0  0
   -2.7402    1.0840   -0.8276 C   0  0  0  0  0  0  0  0  0  0  0  0
   -3.8891   -1.2286    0.2256 C   0  0  0  0  0  0  0  0  0  0  0  0
    1.7618    3.2852   -0.2820 C   0  0  0  0  0  0  0  0  0  0  0  0
    0.4265    2.5061    1.5571 C   0  0  0  0  0  0  0  0  0  0  0  0
   -4.1160    0.8776   -0.9322 C   0  0  0  0  0  0  0  0  0  0  0  0
   -4.6894   -0.2764   -0.4066 C   0  0  0  0  0  0  0  0  0  0  0  0
    2.3887   -0.9563   -0.3967 C   0  0  0  0  0  0  0  0  0  0  0  0
    4.6934   -1.2250   -1.2579 C   0  0  0  0  0  0  0  0  0  0  0  0
    4.3599   -0.0696    0.9027 C   0  0  0  0  0  0  0  0  0  0  0  0
  1  9  1  0
  1 18  1  0
  2 18  2  0
  3  6  1  0
  3 14  1  0
  3 15  1  0
  4 18  1  0
  4 19  1  0
  4 20  1  0
  5  6  1  0
  5  7  2  0
  5  9  1  0
  7  8  1  0
  7 12  1  0
  8 10  2  0
  8 13  1  0
  9 11  2  0
 10 11  1  0
 12 16  2  0
 13 17  2  0
 16 17  1  0
M  END
>  <PUBCHEM_COMPOUND_CID>  (1) 
49112

>  <PUBCHEM_CONFORMER_RMSD>  (1) 
0.8

>  <PUBCHEM_CONFORMER_DIVERSEORDER>  (1) 
1
14
10
11
2
16
9
7
4
12
13
3
6
5
8
15

>  <PUBCHEM_MMFF94_PARTIAL_CHARGES>  (1) 
24
1 -0.23
10 -0.15
11 -0.15
12 -0.15
13 -0.15
14 0.27
15 0.27
16 -0.15
17 -0.15
18 0.78
19 0.3
2 -0.57
20 0.3
23 0.15
24 0.15
25 0.15
26 0.15
3 -0.81
33 0.15
34 0.15
4 -0.66
5 -0.14
6 0.41
9 0.08

>  <PUBCHEM_EFFECTIVE_ROTOR_COUNT>  (1) 
5

>  <PUBCHEM_PHARMACOPHORE_FEATURES>  (1) 
4
1 2 acceptor
1 3 cation
6 5 7 8 9 10 11 rings
6 7 8 12 13 16 17 rings

>  <PUBCHEM_HEAVY_ATOM_COUNT>  (1) 
20

>  <PUBCHEM_ATOM_DEF_STEREO_COUNT>  (1) 
0

>  <PUBCHEM_ATOM_UDEF_STEREO_COUNT>  (1) 
0

>  <PUBCHEM_BOND_DEF_STEREO_COUNT>  (1) 
0

>  <PUBCHEM_BOND_UDEF_STEREO_COUNT>  (1) 
0

>  <PUBCHEM_ISOTOPIC_ATOM_COUNT>  (1) 
0

>  <PUBCHEM_COMPONENT_COUNT>  (1) 
1

>  <PUBCHEM_CACTVS_TAUTO_COUNT>  (1) 
1

>  <PUBCHEM_CONFORMER_ID>  (1) 
0000BFD800000001

>  <PUBCHEM_MMFF94_ENERGY>  (1) 
71.8148

>  <PUBCHEM_FEATURE_SELFOVERLAP>  (1) 
20.324

>  <PUBCHEM_SHAPE_FINGERPRINT>  (1) 
10906281 52 18340222829287162792
1100329 8 18198067971406910681
11680986 33 18190465063311520185
12035758 1 18336260231950270281
12236239 1 16732700537189700570
13134695 92 17774998011708748592
13140716 1 18188778387158668411
14115302 16 17822019713181470750
14790565 3 17617941327125078021
14911166 2 18334293145925006535
15219456 202 18264205988255987801
15375358 24 18412822473677596830
15475509 8 18055652624222956413
15536298 74 18337667637215247913
15848702 151 17988925560997621919
16945 1 18261947462871618243
17357779 13 18201152161767680972
17804303 29 18260547844466840883
1813 80 16988297399391081980
18186145 218 18334564759978454957
18785283 64 18191310591864202472
200 152 17132114598240941686
20233049 118 18040711441942732458
20691752 17 17023732554656977475
20871999 31 18335708182634395316
20905425 154 17831592241970300294
21029758 11 18412825776470309873
21041028 32 18272378568191822705
21501502 16 18122060072639362195
22182313 1 17825951696165486339
23175994 123 18201443566655837705
2334 1 18116710919011713601
23402539 116 18340484440082301590
23419403 2 18057576851155266328
23493267 7 16081087078632638065
23557571 272 18199192797977117094
23559900 14 18335140856985408142
2748010 2 18043250348126434443
3004659 81 17822572695265286930
350125 39 18260832588378238285
4340502 62 12396588390923517369
495365 180 17914887862582855208
7364860 26 18270118053509445025
81228 2 18053399712033775528
84936 31 17703502311389003144
9709674 26 18118964926175033339

>  <PUBCHEM_SHAPE_MULTIPOLES>  (1) 
389.89
8.02
2.7
1.21
0.98
2.08
0.07
-2.49
-2.27
1.13
0.44
0.49
0
1.23

>  <PUBCHEM_SHAPE_SELFOVERLAP>  (1) 
826.015

>  <PUBCHEM_SHAPE_VOLUME>  (1) 
219.3

>  <PUBCHEM_COORDINATE_TYPE>  (1) 
2
5
10

$$$$
