49119
     RDKit          3D

 16 16  0  0  0  0  0  0  0  0999 V2000
   -0.8301    0.2792   -0.6884 O   0  0  0  0  0  0  0  0  0  0  0  0
   -1.6095    1.2302    1.2731 O   0  0  0  0  0  0  0  0  0  0  0  0
   -3.0714    0.0629   -0.1090 N   0  0  0  0  0  0  0  0  0  0  0  0
    0.9481   -1.2681    0.8311 N   0  0  0  0  0  0  0  0  0  0  0  0
    0.8886   -3.5744    0.4753 N   0  0  0  0  0  0  0  0  0  0  0  0
    1.8241   -2.2947   -1.1663 N   0  0  0  0  0  0  0  0  0  0  0  0
    0.4352    0.7804   -0.3655 C   0  0  0  0  0  0  0  0  0  0  0  0
    1.2985    0.0104    0.3810 C   0  0  0  0  0  0  0  0  0  0  0  0
    0.7646    2.0398   -0.8162 C   0  0  0  0  0  0  0  0  0  0  0  0
    2.5565    0.5259    0.6937 C   0  0  0  0  0  0  0  0  0  0  0  0
    2.0225    2.5555   -0.5034 C   0  0  0  0  0  0  0  0  0  0  0  0
   -1.8219    0.5809    0.2495 C   0  0  0  0  0  0  0  0  0  0  0  0
    2.9185    1.7986    0.2518 C   0  0  0  0  0  0  0  0  0  0  0  0
   -4.2267    0.2782    0.7503 C   0  0  0  0  0  0  0  0  0  0  0  0
   -3.3133   -0.7029   -1.3274 C   0  0  0  0  0  0  0  0  0  0  0  0
    1.2163   -2.3020    0.0705 C   0  0  0  0  0  0  0  0  0  0  0  0
  1  7  1  0
  1 12  1  0
  2 12  2  0
  3 12  1  0
  3 14  1  0
  3 15  1  0
  4  8  1  0
  4 16  2  3
  5 16  1  0
  6 16  1  0
  7  8  2  0
  7  9  1  0
  8 10  1  0
  9 11  2  0
 10 13  2  0
 11 13  1  0
M  END
>  <PUBCHEM_COMPOUND_CID>  (1) 
49119

>  <PUBCHEM_CONFORMER_RMSD>  (1) 
0.6

>  <PUBCHEM_CONFORMER_DIVERSEORDER>  (1) 
2
30
20
21
16
27
6
32
9
31
17
4
19
3
25
11
18
1
26
7
29
24
8
22
23
10
12
28
5
13
14
15

>  <PUBCHEM_MMFF94_PARTIAL_CHARGES>  (1) 
24
1 -0.23
10 -0.15
11 -0.15
12 0.78
13 -0.15
14 0.3
15 0.3
16 0.55
17 0.15
18 0.15
19 0.15
2 -0.57
20 0.15
27 0.4
28 0.4
29 0.4
3 -0.66
30 0.4
4 -0.63
5 -0.85
6 -0.85
7 0.08
8 0.18
9 -0.15

>  <PUBCHEM_EFFECTIVE_ROTOR_COUNT>  (1) 
4

>  <PUBCHEM_PHARMACOPHORE_FEATURES>  (1) 
5
1 2 acceptor
1 5 donor
1 6 donor
4 4 5 6 16 cation
6 7 8 9 10 11 13 rings

>  <PUBCHEM_HEAVY_ATOM_COUNT>  (1) 
16

>  <PUBCHEM_ATOM_DEF_STEREO_COUNT>  (1) 
0

>  <PUBCHEM_ATOM_UDEF_STEREO_COUNT>  (1) 
0

>  <PUBCHEM_BOND_DEF_STEREO_COUNT>  (1) 
0

>  <PUBCHEM_BOND_UDEF_STEREO_COUNT>  (1) 
0

>  <PUBCHEM_ISOTOPIC_ATOM_COUNT>  (1) 
0

>  <PUBCHEM_COMPONENT_COUNT>  (1) 
1

>  <PUBCHEM_CACTVS_TAUTO_COUNT>  (1) 
2

>  <PUBCHEM_CONFORMER_ID>  (1) 
0000BFDF00000002

>  <PUBCHEM_MMFF94_ENERGY>  (1) 
52.6057

>  <PUBCHEM_FEATURE_SELFOVERLAP>  (1) 
25.427

>  <PUBCHEM_SHAPE_FINGERPRINT>  (1) 
10219947 1 18187918521277898236
10465860 228 18341060627056539353
12326174 3 18041272197336716368
12346645 6 18408602578083217637
12553582 1 17905891379356062811
14251717 144 18336253635038752109
15279307 12 18272650190523806943
15309172 13 18261950881059229644
15490181 8 18267032823981827052
15502708 68 18336539499340332704
15906896 17 17765716106556537686
16945 1 18335698347127846493
18186145 218 18266740362310501093
201361 129 18343310253442667169
20645477 70 18261379054041124623
20871998 22 18121779426628249986
21160774 45 17615131422243734531
21524375 3 18118397582285549328
22445834 79 18270966730704860225
2255824 54 18411426072382704847
23419403 2 14134900876415005208
23530152 11 18264773340392696902
23557571 272 17190088333538922822
23598291 2 18129389202660163093
2748010 2 18117009981362510784
3060560 45 18335419110113895124
3250762 1 17830157022914312340
633830 44 18200323241564311229
6992083 37 17480031791296973049
7364860 26 18343306928937207877
81228 2 17256229454937569440
8272917 22 18410011027246470381

>  <PUBCHEM_SHAPE_MULTIPOLES>  (1) 
297.61
5.34
3.12
1.09
5.86
3
-0.1
-1.99
0.3
-2.59
-0.22
0.39
0.03
-0.43

>  <PUBCHEM_SHAPE_SELFOVERLAP>  (1) 
613.603

>  <PUBCHEM_SHAPE_VOLUME>  (1) 
169.6

>  <PUBCHEM_COORDINATE_TYPE>  (1) 
2
5
10

$$$$
