49121
     RDKit          3D

 15 15  0  0  0  0  0  0  0  0999 V2000
    0.5816    0.7488   -0.7467 O   0  0  0  0  0  0  0  0  0  0  0  0
    1.0899    0.4450    1.4913 O   0  0  0  0  0  0  0  0  0  0  0  0
   -0.2026   -2.4079    0.4467 N   0  0  0  0  0  0  0  0  0  0  0  0
    2.8030    0.6262   -0.0714 N   0  0  0  0  0  0  0  0  0  0  0  0
   -2.7616   -0.5344   -0.0257 N   0  0  0  0  0  0  0  0  0  0  0  0
   -1.4552   -0.4579   -0.3652 C   0  0  0  0  0  0  0  0  0  0  0  0
   -0.7954   -1.7506   -0.7183 C   0  0  0  0  0  0  0  0  0  0  0  0
   -0.7701    0.7216   -0.3881 C   0  0  0  0  0  0  0  0  0  0  0  0
   -1.3883    1.9001   -0.0618 C   0  0  0  0  0  0  0  0  0  0  0  0
   -2.7321    1.8619    0.2931 C   0  0  0  0  0  0  0  0  0  0  0  0
    1.4622    0.5934    0.3279 C   0  0  0  0  0  0  0  0  0  0  0  0
   -3.3676    0.6306    0.2956 C   0  0  0  0  0  0  0  0  0  0  0  0
    0.4379   -3.6557    0.0625 C   0  0  0  0  0  0  0  0  0  0  0  0
    3.8639    0.4800    0.9149 C   0  0  0  0  0  0  0  0  0  0  0  0
    3.2341    0.7991   -1.4548 C   0  0  0  0  0  0  0  0  0  0  0  0
  1  8  1  0
  1 11  1  0
  2 11  2  0
  3  7  1  0
  3 13  1  0
  4 11  1  0
  4 14  1  0
  4 15  1  0
  5  6  2  0
  5 12  1  0
  6  7  1  0
  6  8  1  0
  8  9  2  0
  9 10  1  0
 10 12  2  0
M  END
>  <PUBCHEM_COMPOUND_CID>  (1) 
49121

>  <PUBCHEM_CONFORMER_RMSD>  (1) 
0.6

>  <PUBCHEM_CONFORMER_DIVERSEORDER>  (1) 
1
29
66
48
17
51
16
49
41
68
57
6
37
64
69
31
63
47
32
7
78
42
21
77
56
75
25
71
13
27
74
18
36
43
10
33
24
52
76
2
3
12
34
55
54
5
58
46
70
40
39
60
62
19
50
8
53
38
20
72
15
22
65
44
73
11
26
35
59
9
28
23
14
4
67
30
45
61

>  <PUBCHEM_MMFF94_PARTIAL_CHARGES>  (1) 
19
1 -0.23
10 -0.15
11 0.78
12 0.16
13 0.27
14 0.3
15 0.3
18 0.36
19 0.15
2 -0.57
20 0.15
21 0.15
3 -0.9
4 -0.66
5 -0.62
6 0.17
7 0.41
8 0.08
9 -0.15

>  <PUBCHEM_EFFECTIVE_ROTOR_COUNT>  (1) 
5

>  <PUBCHEM_PHARMACOPHORE_FEATURES>  (1) 
5
1 2 acceptor
1 3 cation
1 3 donor
1 5 acceptor
6 5 6 8 9 10 12 rings

>  <PUBCHEM_HEAVY_ATOM_COUNT>  (1) 
15

>  <PUBCHEM_ATOM_DEF_STEREO_COUNT>  (1) 
0

>  <PUBCHEM_ATOM_UDEF_STEREO_COUNT>  (1) 
0

>  <PUBCHEM_BOND_DEF_STEREO_COUNT>  (1) 
0

>  <PUBCHEM_BOND_UDEF_STEREO_COUNT>  (1) 
0

>  <PUBCHEM_ISOTOPIC_ATOM_COUNT>  (1) 
0

>  <PUBCHEM_COMPONENT_COUNT>  (1) 
1

>  <PUBCHEM_CACTVS_TAUTO_COUNT>  (1) 
1

>  <PUBCHEM_CONFORMER_ID>  (1) 
0000BFE100000001

>  <PUBCHEM_MMFF94_ENERGY>  (1) 
38.8276

>  <PUBCHEM_FEATURE_SELFOVERLAP>  (1) 
25.372

>  <PUBCHEM_SHAPE_FINGERPRINT>  (1) 
12173636 292 18410292536040081396
12592029 89 18264500493857552251
14993402 34 18261113010465430589
15279307 12 18114179787288880626
15279308 132 18271520987449224248
15309172 13 18409733958526546633
15375462 175 18410011069568330835
15669948 3 18264774444468207156
15775835 57 18272650121519266169
16945 1 18340769342010215885
18175812 5 13190341274868423080
18186145 218 17845664663613667256
19422 9 17894352198058671656
20510252 161 18272655687781375977
20645476 183 18042417970109881318
20871998 184 18127979813220774391
21501502 16 18054224324580425193
22344851 341 18198351658201386463
23402539 116 18270947055153761325
23419403 2 17048584691315361679
23463225 33 18189330186907185106
23526113 38 17489590095222670378
23557571 272 17910399712496076064
257057 1 17259891348265086990
2748010 2 16896783676158002078
276578 36 18270125604130373961
305870 269 18339641110083707513
3250762 1 17613149672693591085
43471831 8 18409165485277064931
528862 383 18120086191506221515
5706482 22 18412536605112586835
57177213 63 18337679598614758325
7364860 26 18053380994307830031
77492 1 17822010938616175332
81228 2 17981876751008255603
81539 233 18261393278735328095
90525 40 18260544519872009996

>  <PUBCHEM_SHAPE_MULTIPOLES>  (1) 
282.01
5.31
2.87
1.04
2.39
3.77
0.03
-2.99
-0.36
-0.33
-0.09
0.8
-0.18
-0.3

>  <PUBCHEM_SHAPE_SELFOVERLAP>  (1) 
571.103

>  <PUBCHEM_SHAPE_VOLUME>  (1) 
165.3

>  <PUBCHEM_COORDINATE_TYPE>  (1) 
2
5
10

$$$$
