49129
     RDKit          3D

 18 19  0  0  1  0  0  0  0  0999 V2000
    3.7538    0.0029    0.8736 O   0  0  0  0  0  0  0  0  0  0  0  0
   -5.0463   -0.7480    0.7586 O   0  0  0  0  0  0  0  0  0  0  0  0
   -4.4411    0.8533   -0.7727 O   0  0  0  0  0  0  0  0  0  0  0  0
   -0.6745   -1.3037   -0.6195 N   0  0  0  0  0  0  0  0  0  0  0  0
   -1.4250    1.0112   -0.5340 N   0  0  0  0  0  0  0  0  0  0  0  0
   -2.9528   -0.7820   -0.0672 N   0  0  0  0  0  0  0  0  0  0  0  0
    0.2654   -0.5103   -0.2377 C   0  0  0  0  0  0  0  0  0  0  0  0
   -0.1903    0.8954   -0.1861 C   0  0  0  0  0  0  0  0  0  0  0  0
   -1.8142   -0.3840   -0.8505 C   0  0  0  0  0  0  0  0  0  0  0  0
    2.4382    0.1827    0.5044 C   0  0  0  0  0  0  0  0  0  0  0  0
    1.6475   -0.8355    0.1325 C   0  0  0  0  0  0  0  0  0  0  0  0
    0.7469    1.9421    0.2345 C   0  0  0  0  0  0  0  0  0  0  0  0
    1.9905    1.5605    0.5547 C   0  0  0  0  0  0  0  0  0  0  0  0
    4.3193   -1.1048    0.1989 C   0  0  0  0  0  0  0  0  0  0  0  0
    5.8124   -0.8686    0.0313 C   0  0  0  0  0  0  0  0  0  0  0  0
    6.0990    0.3944   -0.7608 C   0  0  0  0  0  0  0  0  0  0  0  0
   -4.1726   -0.1313   -0.0921 C   0  0  0  0  0  0  0  0  0  0  0  0
   -6.3563   -0.1742    0.8320 C   0  0  0  0  0  0  0  0  0  0  0  0
  1 10  1  0
  1 14  1  0
  2 17  1  0
  2 18  1  0
  3 17  2  0
  4  7  2  0
  4  9  1  0
  5  8  2  0
  5  9  1  0
  6  9  1  0
  6 17  1  0
  7  8  1  0
  7 11  1  0
  8 12  1  0
 10 11  2  0
 10 13  1  0
 12 13  2  0
 14 15  1  0
 15 16  1  0
M  END
>  <PUBCHEM_COMPOUND_CID>  (1) 
49129

>  <PUBCHEM_CONFORMER_RMSD>  (1) 
0.8

>  <PUBCHEM_CONFORMER_DIVERSEORDER>  (1) 
1
46
52
37
22
42
24
2
7
51
18
36
15
26
39
12
49
28
48
5
41
47
23
16
27
29
9
20
43
40
21
38
34
44
53
13
32
19
30
35
31
33
6
25
4
10
45
50
14
8
3
17
11

>  <PUBCHEM_MMFF94_PARTIAL_CHARGES>  (1) 
20
1 -0.36
10 0.08
11 -0.14
12 -0.14
13 -0.15
14 0.28
17 0.78
18 0.28
2 -0.43
20 0.15
21 0.15
22 0.15
27 0.37
3 -0.57
4 -0.7
5 -0.7
6 -0.73
7 0.44
8 0.44
9 0.79

>  <PUBCHEM_EFFECTIVE_ROTOR_COUNT>  (1) 
6.2

>  <PUBCHEM_PHARMACOPHORE_FEATURES>  (1) 
8
1 1 acceptor
1 16 hydrophobe
1 3 acceptor
1 4 acceptor
1 5 acceptor
1 6 donor
5 4 5 7 8 9 rings
6 7 8 10 11 12 13 rings

>  <PUBCHEM_HEAVY_ATOM_COUNT>  (1) 
18

>  <PUBCHEM_ATOM_DEF_STEREO_COUNT>  (1) 
0

>  <PUBCHEM_ATOM_UDEF_STEREO_COUNT>  (1) 
1

>  <PUBCHEM_BOND_DEF_STEREO_COUNT>  (1) 
0

>  <PUBCHEM_BOND_UDEF_STEREO_COUNT>  (1) 
0

>  <PUBCHEM_ISOTOPIC_ATOM_COUNT>  (1) 
0

>  <PUBCHEM_COMPONENT_COUNT>  (1) 
1

>  <PUBCHEM_CACTVS_TAUTO_COUNT>  (1) 
2

>  <PUBCHEM_CONFORMER_ID>  (1) 
0000BFE900000001

>  <PUBCHEM_MMFF94_ENERGY>  (1) 
28.8807

>  <PUBCHEM_FEATURE_SELFOVERLAP>  (1) 
40.741

>  <PUBCHEM_SHAPE_FINGERPRINT>  (1) 
11287383 113 16732987539778368774
12236239 1 17675925370258737910
12251169 10 18413669132486334975
12714333 28 10015866474930769867
13533116 47 11671794736935722692
13675066 3 18270953635196626353
13740256 8 18261114114240344387
13760787 5 18339353162459582317
13862211 1 18341884182592834982
13968360 50 9223239515819037713
14123256 10 11314309460202086675
14251718 22 16877663461214247934
14251764 18 18343304794860655655
14341114 176 18261678159816543233
15048467 5 17313101938881860036
15475509 8 17630913563272960236
15527383 91 18272370884057109856
19141452 34 17632570578587596342
21029758 27 18334574637849666332
21054139 6 11458716048792667289
21267235 1 18411985724608247326
21521721 280 17822019739352084336
23035841 295 17821728325546880482
23402539 116 13183015211870717281
23536379 177 16805319968509869110
23559900 14 17313387885109611365
23622692 88 17846499240246683965
33382 64 16950558831620621626
34797466 226 16371017299613510358
350125 39 18412265016903327785
351380 180 12967126120847416434
4072396 5 9943529579359480660
4325135 7 12324239477194749866
4340502 62 16805318903880414610
4463277 17 18410856560030361588
465052 167 18408327700097243323
5104073 3 18129369565642743363
5207 217 10953747706984631409
58051976 378 8502376650148762883
59755656 520 13758067477195316589

>  <PUBCHEM_SHAPE_MULTIPOLES>  (1) 
337.88
13.64
1.42
0.87
3.17
0.48
0
-2.91
-1.37
-0.6
-0.04
0.18
0.02
0.19

>  <PUBCHEM_SHAPE_SELFOVERLAP>  (1) 
704.293

>  <PUBCHEM_SHAPE_VOLUME>  (1) 
189.1

>  <PUBCHEM_COORDINATE_TYPE>  (1) 
2
5
10

$$$$
