49146
     RDKit          3D

 17 17  0  0  1  0  0  0  0  0999 V2000
   -0.7175    0.0409    2.3785 O   0  0  0  0  0  0  0  0  0  0  0  0
    0.3452   -1.5315   -2.0003 O   0  0  0  0  0  0  0  0  0  0  0  0
   -2.4680    2.0163   -1.4502 O   0  0  0  0  0  0  0  0  0  0  0  0
   -1.5342    1.1119    0.4876 N   0  0  0  0  0  0  0  0  0  0  0  0
   -1.0548    0.2425   -1.6566 N   0  0  0  0  0  0  0  0  0  0  0  0
    0.1070   -0.7359    0.2639 C   0  0  0  0  0  0  0  0  0  0  0  0
    0.0373   -2.1823    0.7777 C   0  0  0  0  0  0  0  0  0  0  0  0
   -0.7535    0.1520    1.1489 C   0  0  0  0  0  0  0  0  0  0  0  0
   -0.1862   -0.7387   -1.2207 C   0  0  0  0  0  0  0  0  0  0  0  0
    1.5051   -0.1986    0.4052 C   0  0  0  0  0  0  0  0  0  0  0  0
   -1.3603   -2.7515    0.5648 C   0  0  0  0  0  0  0  0  0  0  0  0
    1.0865   -3.0412    0.0821 C   0  0  0  0  0  0  0  0  0  0  0  0
   -1.7328    1.1910   -0.9010 C   0  0  0  0  0  0  0  0  0  0  0  0
    2.0560    0.6812   -0.4434 C   0  0  0  0  0  0  0  0  0  0  0  0
   -2.2655    2.0551    1.3284 C   0  0  0  0  0  0  0  0  0  0  0  0
    3.4521    1.2120   -0.3044 C   0  0  0  0  0  0  0  0  0  0  0  0
    3.4836    2.4768    0.5396 C   0  0  0  0  0  0  0  0  0  0  0  0
  1  8  2  0
  2  9  2  0
  3 13  2  0
  4  8  1  0
  4 13  1  0
  4 15  1  0
  5  9  1  0
  5 13  1  0
  6  7  1  0
  6  8  1  0
  6  9  1  0
  6 10  1  0
  7 11  1  0
  7 12  1  0
 10 14  2  0
 14 16  1  0
 16 17  1  0
M  END
>  <PUBCHEM_COMPOUND_CID>  (1) 
49146

>  <PUBCHEM_CONFORMER_RMSD>  (1) 
0.6

>  <PUBCHEM_CONFORMER_DIVERSEORDER>  (1) 
1
5
8
9
6
2
3
4
7

>  <PUBCHEM_MMFF94_PARTIAL_CHARGES>  (1) 
16
1 -0.57
10 -0.29
13 0.69
14 -0.29
15 0.3
16 0.14
19 0.15
2 -0.57
26 0.37
27 0.15
3 -0.57
4 -0.42
5 -0.49
6 0.26
8 0.57
9 0.57

>  <PUBCHEM_EFFECTIVE_ROTOR_COUNT>  (1) 
3.6

>  <PUBCHEM_PHARMACOPHORE_FEATURES>  (1) 
7
1 1 acceptor
1 17 hydrophobe
1 2 acceptor
1 3 acceptor
1 5 donor
3 7 11 12 hydrophobe
6 4 5 6 8 9 13 rings

>  <PUBCHEM_HEAVY_ATOM_COUNT>  (1) 
17

>  <PUBCHEM_ATOM_DEF_STEREO_COUNT>  (1) 
0

>  <PUBCHEM_ATOM_UDEF_STEREO_COUNT>  (1) 
0

>  <PUBCHEM_BOND_DEF_STEREO_COUNT>  (1) 
0

>  <PUBCHEM_BOND_UDEF_STEREO_COUNT>  (1) 
1

>  <PUBCHEM_ISOTOPIC_ATOM_COUNT>  (1) 
0

>  <PUBCHEM_COMPONENT_COUNT>  (1) 
1

>  <PUBCHEM_CACTVS_TAUTO_COUNT>  (1) 
3

>  <PUBCHEM_CONFORMER_ID>  (1) 
0000BFFA00000001

>  <PUBCHEM_MMFF94_ENERGY>  (1) 
40.8904

>  <PUBCHEM_FEATURE_SELFOVERLAP>  (1) 
35.522

>  <PUBCHEM_SHAPE_FINGERPRINT>  (1) 
12326174 3 17765723416369296703
12423570 1 14029058923465977347
13024252 1 15359080776235410050
13132413 78 17685788208440138539
14142880 1 18128263487115654872
14614273 12 18196095666889679162
14817 1 16550359907744555168
16945 1 17752469113013230007
19765921 60 17988365853718402305
19837323 101 18191285269010773382
20473742 2 17754439171578102094
20510252 161 18048590718856802832
20600515 1 17544490003350801086
21296965 12 18260553328897627672
21524375 3 18343585114211946180
2306618 200 17977939413197443896
23419403 2 17266999416118559967
23559900 14 15003067350810403618
3286 77 17539999190062461161
430814 3 18117252835909146868
568465 68 17102860819915386427
81228 2 17974305509807894882

>  <PUBCHEM_SHAPE_MULTIPOLES>  (1) 
322.28
3.79
3.24
1.72
5.79
0.93
0.11
-2.5
-0.33
-1.83
-0.21
-0.84
-0.38
0.44

>  <PUBCHEM_SHAPE_SELFOVERLAP>  (1) 
661.746

>  <PUBCHEM_SHAPE_VOLUME>  (1) 
185.9

>  <PUBCHEM_COORDINATE_TYPE>  (1) 
2
5
10

$$$$
