49155
     RDKit          3D

 18 18  0  0  0  0  0  0  0  0999 V2000
    0.6410   -1.3092   -2.2780 O   0  0  0  0  0  0  0  0  0  0  0  0
    0.0234    0.4870    2.0165 O   0  0  0  0  0  0  0  0  0  0  0  0
    4.0749   -1.2669    0.7656 O   0  0  0  0  0  0  0  0  0  0  0  0
    2.3831   -1.1970   -0.7895 N   0  0  0  0  0  0  0  0  0  0  0  0
    2.0743   -0.3004    1.3559 N   0  0  0  0  0  0  0  0  0  0  0  0
    0.3776    0.1489   -0.3585 C   0  0  0  0  0  0  0  0  0  0  0  0
   -1.1380   -0.0619   -0.4883 C   0  0  0  0  0  0  0  0  0  0  0  0
   -1.5408   -1.4800   -0.0768 C   0  0  0  0  0  0  0  0  0  0  0  0
    0.7440    1.5462   -0.8900 C   0  0  0  0  0  0  0  0  0  0  0  0
   -3.0608   -1.7230   -0.1202 C   0  0  0  0  0  0  0  0  0  0  0  0
    1.1101   -0.8666   -1.2297 C   0  0  0  0  0  0  0  0  0  0  0  0
    0.7728    0.1136    1.1144 C   0  0  0  0  0  0  0  0  0  0  0  0
   -3.7738   -0.7117    0.7810 C   0  0  0  0  0  0  0  0  0  0  0  0
   -3.4378   -3.1440    0.3009 C   0  0  0  0  0  0  0  0  0  0  0  0
    0.0624    2.6104   -0.0943 C   0  0  0  0  0  0  0  0  0  0  0  0
    2.9301   -0.9293    0.4596 C   0  0  0  0  0  0  0  0  0  0  0  0
   -0.7862    3.5021   -0.6261 C   0  0  0  0  0  0  0  0  0  0  0  0
   -1.4562    4.5817    0.1575 C   0  0  0  0  0  0  0  0  0  0  0  0
  1 11  2  0
  2 12  2  0
  3 16  2  0
  4 11  1  0
  4 16  1  0
  5 12  1  0
  5 16  1  0
  6  7  1  0
  6  9  1  0
  6 11  1  0
  6 12  1  0
  7  8  1  0
  8 10  1  0
  9 15  1  0
 10 13  1  0
 10 14  1  0
 15 17  2  0
 17 18  1  0
M  END
>  <PUBCHEM_COMPOUND_CID>  (1) 
49155

>  <PUBCHEM_CONFORMER_RMSD>  (1) 
0.8

>  <PUBCHEM_CONFORMER_DIVERSEORDER>  (1) 
1
13
10
14
11
6
7
4
8
9
12
2
5
3

>  <PUBCHEM_MMFF94_PARTIAL_CHARGES>  (1) 
17
1 -0.57
11 0.57
12 0.57
15 -0.29
16 0.69
17 -0.29
18 0.14
2 -0.57
3 -0.57
32 0.15
33 0.37
34 0.37
35 0.15
4 -0.49
5 -0.49
6 0.12
9 0.14

>  <PUBCHEM_EFFECTIVE_ROTOR_COUNT>  (1) 
5.6

>  <PUBCHEM_PHARMACOPHORE_FEATURES>  (1) 
8
1 1 acceptor
1 18 hydrophobe
1 2 acceptor
1 3 acceptor
1 4 donor
1 5 donor
3 10 13 14 hydrophobe
6 4 5 6 11 12 16 rings

>  <PUBCHEM_HEAVY_ATOM_COUNT>  (1) 
18

>  <PUBCHEM_ATOM_DEF_STEREO_COUNT>  (1) 
0

>  <PUBCHEM_ATOM_UDEF_STEREO_COUNT>  (1) 
0

>  <PUBCHEM_BOND_DEF_STEREO_COUNT>  (1) 
0

>  <PUBCHEM_BOND_UDEF_STEREO_COUNT>  (1) 
1

>  <PUBCHEM_ISOTOPIC_ATOM_COUNT>  (1) 
0

>  <PUBCHEM_COMPONENT_COUNT>  (1) 
1

>  <PUBCHEM_CACTVS_TAUTO_COUNT>  (1) 
5

>  <PUBCHEM_CONFORMER_ID>  (1) 
0000C00300000001

>  <PUBCHEM_MMFF94_ENERGY>  (1) 
41.0562

>  <PUBCHEM_FEATURE_SELFOVERLAP>  (1) 
40.636

>  <PUBCHEM_SHAPE_FINGERPRINT>  (1) 
11578080 2 16591358381288365556
12423570 1 11698422421325733092
12532896 13 17691959367363345773
12716301 132 17980458088792354449
12788726 201 18189352202872595178
13134695 92 18193542579225249693
13955234 65 17760089918737814347
14004458 79 18265350429383660277
14787075 74 17823412889404088816
14817 1 12153260986727243928
14955137 171 17833260201278760288
15852999 172 17481412790997169286
16945 1 18267013969159748246
17041 49 18337681909597411395
20600515 1 18271533086319778075
20723712 36 17618765294909234057
23419403 2 17844502522720079529
31174 14 17973719478953640335
394222 165 17477781537697803539
4175511 71 18336830896071142953
430814 3 17114375404055567565
6442390 28 17764032363586838457
7364860 26 17903918099596743739
81228 2 18264761056818002421
9999458 23 17472422526545314805

>  <PUBCHEM_SHAPE_MULTIPOLES>  (1) 
342.86
4.98
4.35
1.44
5.21
7.56
0.07
-5.34
-1.33
-1.02
0.2
-0.54
-0.46
-0.37

>  <PUBCHEM_SHAPE_SELFOVERLAP>  (1) 
691.703

>  <PUBCHEM_SHAPE_VOLUME>  (1) 
198.2

>  <PUBCHEM_COORDINATE_TYPE>  (1) 
2
5
10

$$$$
