4916
     RDKit          3D

 21 22  0  0  1  0  0  0  0  0999 V2000
   -1.8192   -0.0182   -2.4893 O   0  0  0  0  0  0  0  0  0  0  0  0
    3.2463   -2.7317    0.0461 O   0  0  0  0  0  0  0  0  0  0  0  0
    4.5209    1.8915    1.2616 O   0  0  0  0  0  0  0  0  0  0  0  0
   -2.6557   -0.7073    0.2871 N   0  0  0  0  0  0  0  0  0  0  0  0
    3.3930    0.0269    0.5176 N   0  0  0  0  0  0  0  0  0  0  0  0
   -2.2345    0.6279   -0.1575 C   0  0  0  0  0  0  0  0  0  0  0  0
   -1.1911    0.5009   -1.3081 C   0  0  0  0  0  0  0  0  0  0  0  0
   -3.4763    1.4526   -0.5519 C   0  0  0  0  0  0  0  0  0  0  0  0
    0.0068   -0.3112   -0.9320 C   0  0  0  0  0  0  0  0  0  0  0  0
   -3.5309   -0.6065    1.4416 C   0  0  0  0  0  0  0  0  0  0  0  0
    1.1517    0.2640   -0.3734 C   0  0  0  0  0  0  0  0  0  0  0  0
   -3.1437    2.8886   -0.9432 C   0  0  0  0  0  0  0  0  0  0  0  0
   -0.0435   -1.6886   -1.1569 C   0  0  0  0  0  0  0  0  0  0  0  0
    2.2405   -0.5517   -0.0443 C   0  0  0  0  0  0  0  0  0  0  0  0
   -2.8055    0.0769    2.5973 C   0  0  0  0  0  0  0  0  0  0  0  0
   -4.0074   -1.9995    1.8408 C   0  0  0  0  0  0  0  0  0  0  0  0
    2.1921   -1.9289   -0.2685 C   0  0  0  0  0  0  0  0  0  0  0  0
    1.2433    1.7003   -0.1229 C   0  0  0  0  0  0  0  0  0  0  0  0
    1.0461   -2.4951   -0.8257 C   0  0  0  0  0  0  0  0  0  0  0  0
    2.3493    2.2298    0.4122 C   0  0  0  0  0  0  0  0  0  0  0  0
    3.5177    1.3794    0.7694 C   0  0  0  0  0  0  0  0  0  0  0  0
  1  7  1  0
  2 17  1  0
  3 21  2  0
  4  6  1  0
  4 10  1  0
  5 14  1  0
  5 21  1  0
  6  7  1  0
  6  8  1  0
  7  9  1  0
  8 12  1  0
  9 11  1  0
  9 13  2  0
 10 15  1  0
 10 16  1  0
 11 14  2  0
 11 18  1  0
 13 19  1  0
 14 17  1  0
 17 19  2  0
 18 20  2  0
 20 21  1  0
M  END
>  <PUBCHEM_COMPOUND_CID>  (1) 
4916

>  <PUBCHEM_CONFORMER_RMSD>  (1) 
0.8

>  <PUBCHEM_CONFORMER_DIVERSEORDER>  (1) 
1
15
5
7
13
6
10
16
9
11
8
2
17
4
12
3
14

>  <PUBCHEM_MMFF94_PARTIAL_CHARGES>  (1) 
25
1 -0.68
10 0.27
11 0.03
13 -0.15
14 0.12
17 0.08
18 -0.18
19 -0.15
2 -0.53
20 -0.14
21 0.62
26 0.36
3 -0.57
31 0.15
38 0.4
39 0.15
4 -0.9
40 0.15
41 0.37
42 0.15
43 0.45
5 -0.55
6 0.27
7 0.42
9 -0.14

>  <PUBCHEM_EFFECTIVE_ROTOR_COUNT>  (1) 
5

>  <PUBCHEM_PHARMACOPHORE_FEATURES>  (1) 
11
1 1 acceptor
1 1 donor
1 12 hydrophobe
1 2 donor
1 3 acceptor
1 4 cation
1 4 donor
1 5 donor
3 10 15 16 hydrophobe
6 5 11 14 18 20 21 rings
6 9 11 13 14 17 19 rings

>  <PUBCHEM_HEAVY_ATOM_COUNT>  (1) 
21

>  <PUBCHEM_ATOM_DEF_STEREO_COUNT>  (1) 
0

>  <PUBCHEM_ATOM_UDEF_STEREO_COUNT>  (1) 
2

>  <PUBCHEM_BOND_DEF_STEREO_COUNT>  (1) 
0

>  <PUBCHEM_BOND_UDEF_STEREO_COUNT>  (1) 
0

>  <PUBCHEM_ISOTOPIC_ATOM_COUNT>  (1) 
0

>  <PUBCHEM_COMPONENT_COUNT>  (1) 
1

>  <PUBCHEM_CACTVS_TAUTO_COUNT>  (1) 
6

>  <PUBCHEM_CONFORMER_ID>  (1) 
0000133400000001

>  <PUBCHEM_MMFF94_ENERGY>  (1) 
50.9146

>  <PUBCHEM_FEATURE_SELFOVERLAP>  (1) 
55.851

>  <PUBCHEM_SHAPE_FINGERPRINT>  (1) 
10366900 7 18189066437302677233
11471102 22 18409453582808035150
11582403 64 16527432775286859773
11640471 11 17060339578706786833
12293681 4 17976543801654139049
12507560 18 17611747804058155841
12633257 1 18126031294265038915
12892183 10 18041267868294674704
13083527 12 17679873879759833439
13140716 1 18267863891415968924
13583140 156 18412826863181275779
14178342 30 17530964648945426969
14223421 5 18408328791308716539
14251764 38 17197726726779934881
14289901 80 18041012746878277363
14341114 328 17417270839008583611
14787075 74 17414435314415847003
14790565 3 18411979183426589100
15295992 7 18122353376351943833
15534591 1 16987725756239035438
16945 1 18335986487909521262
17357990 137 16845302600446464815
18186145 218 17918280874177934020
18219364 16 18340195392724904572
19049666 15 18190183382281958629
20510252 161 17336162236964579010
20681677 76 18410008810779633887
21524375 3 17843961674731257404
21731516 1 14562540582589183357
21756936 100 16988009417543958736
21864079 5 16916801651368131177
23559900 14 18041569022415773287
2748010 2 18052799379017247964
3797600 57 17273438255311666243
392239 28 17342112738017941427
469060 322 18053366984477814851
49207404 50 18408605876543975080
59755656 520 17702394029764939376
6049 1 18265350442363397085
81228 2 17458639895537015557
9709674 26 18334854983518821429

>  <PUBCHEM_SHAPE_MULTIPOLES>  (1) 
404.6
7.46
2.97
1.85
0.11
0.09
0.38
-1.23
3.98
-0.74
-0.19
1.83
0.15
2.49

>  <PUBCHEM_SHAPE_SELFOVERLAP>  (1) 
847.265

>  <PUBCHEM_SHAPE_VOLUME>  (1) 
229.1

>  <PUBCHEM_COORDINATE_TYPE>  (1) 
2
5
10

$$$$
