49167
     RDKit          3D

 18 18  0  0  1  0  0  0  0  0999 V2000
   -0.9757   -0.4203   -0.1595 O   0  0  0  0  0  0  0  0  0  0  0  0
    1.9148   -0.6066    2.1879 O   0  0  0  0  0  0  0  0  0  0  0  0
    1.8613    0.2608   -2.4268 O   0  0  0  0  0  0  0  0  0  0  0  0
    0.0494    3.2507    0.5456 O   0  0  0  0  0  0  0  0  0  0  0  0
    0.8958    1.2734    1.3574 N   0  0  0  0  0  0  0  0  0  0  0  0
    0.8685    1.7065   -0.9478 N   0  0  0  0  0  0  0  0  0  0  0  0
    1.4250   -0.5585   -0.1866 C   0  0  0  0  0  0  0  0  0  0  0  0
    0.1008   -1.3323   -0.3164 C   0  0  0  0  0  0  0  0  0  0  0  0
    2.6001   -1.5275   -0.3823 C   0  0  0  0  0  0  0  0  0  0  0  0
    1.4691    0.0175    1.2254 C   0  0  0  0  0  0  0  0  0  0  0  0
    1.4396    0.4908   -1.2935 C   0  0  0  0  0  0  0  0  0  0  0  0
   -0.0017   -2.4301    0.7237 C   0  0  0  0  0  0  0  0  0  0  0  0
    3.9215   -0.8279   -0.1563 C   0  0  0  0  0  0  0  0  0  0  0  0
   -2.2344   -1.0725   -0.2688 C   0  0  0  0  0  0  0  0  0  0  0  0
   -3.3397   -0.0413   -0.0914 C   0  0  0  0  0  0  0  0  0  0  0  0
    0.5532    2.1467    0.3321 C   0  0  0  0  0  0  0  0  0  0  0  0
   -4.7238   -0.6775   -0.1815 C   0  0  0  0  0  0  0  0  0  0  0  0
   -5.8239    0.3482    0.0390 C   0  0  0  0  0  0  0  0  0  0  0  0
  1  8  1  0
  1 14  1  0
  2 10  2  0
  3 11  2  0
  4 16  2  0
  5 10  1  0
  5 16  1  0
  6 11  1  0
  6 16  1  0
  7  8  1  0
  7  9  1  0
  7 10  1  0
  7 11  1  0
  8 12  1  0
  9 13  1  0
 14 15  1  0
 15 17  1  0
 17 18  1  0
M  END
>  <PUBCHEM_COMPOUND_CID>  (1) 
49167

>  <PUBCHEM_CONFORMER_RMSD>  (1) 
0.8

>  <PUBCHEM_CONFORMER_DIVERSEORDER>  (1) 
2
30
31
10
12
18
13
11
15
37
36
3
16
19
28
7
22
5
23
33
35
6
29
26
21
20
4
14
27
1
9
8
25
34
32
24
17

>  <PUBCHEM_MMFF94_PARTIAL_CHARGES>  (1) 
14
1 -0.56
10 0.57
11 0.57
14 0.28
16 0.69
2 -0.57
3 -0.57
30 0.37
31 0.37
4 -0.57
5 -0.49
6 -0.49
7 0.12
8 0.28

>  <PUBCHEM_EFFECTIVE_ROTOR_COUNT>  (1) 
6.6

>  <PUBCHEM_PHARMACOPHORE_FEATURES>  (1) 
9
1 1 acceptor
1 13 hydrophobe
1 18 hydrophobe
1 2 acceptor
1 3 acceptor
1 4 acceptor
1 5 donor
1 6 donor
6 5 6 7 10 11 16 rings

>  <PUBCHEM_HEAVY_ATOM_COUNT>  (1) 
18

>  <PUBCHEM_ATOM_DEF_STEREO_COUNT>  (1) 
0

>  <PUBCHEM_ATOM_UDEF_STEREO_COUNT>  (1) 
1

>  <PUBCHEM_BOND_DEF_STEREO_COUNT>  (1) 
0

>  <PUBCHEM_BOND_UDEF_STEREO_COUNT>  (1) 
0

>  <PUBCHEM_ISOTOPIC_ATOM_COUNT>  (1) 
0

>  <PUBCHEM_COMPONENT_COUNT>  (1) 
1

>  <PUBCHEM_CACTVS_TAUTO_COUNT>  (1) 
5

>  <PUBCHEM_CONFORMER_ID>  (1) 
0000C00F00000002

>  <PUBCHEM_MMFF94_ENERGY>  (1) 
45.577

>  <PUBCHEM_FEATURE_SELFOVERLAP>  (1) 
45.713

>  <PUBCHEM_SHAPE_FINGERPRINT>  (1) 
10366900 7 17967530173740710707
104564 63 18124595271490593683
12423570 1 14169702670519230618
12617007 42 18130518482405737053
12725867 57 18273777150997213220
13024252 1 9474720768858840702
13134695 92 18343577438930886471
13464514 151 18123759908999900964
14648413 74 18122908899826641578
14817 1 13993303583052059108
16945 1 17981609265109286734
18186145 218 18113889499287328327
20233049 118 18334293154235197381
20511035 2 17486201511933811958
20559304 39 18408601444649467471
21503847 285 18342174475585355587
21524375 3 16835442485122096024
22289505 5 18264198116050212199
22892500 29 16558456561047759418
23402539 116 18060412499948047903
3052486 1 18267587901418963857
3060560 45 17846495903231688375
5939293 188 18269829964620897193
7364860 26 18268708496671508204
9999458 23 15936417766049562951

>  <PUBCHEM_SHAPE_MULTIPOLES>  (1) 
336.99
7.18
2.35
1.45
14.07
1.44
0.07
-1.5
0.6
-0.71
-0.48
-1.32
0.18
-0.14

>  <PUBCHEM_SHAPE_SELFOVERLAP>  (1) 
681.383

>  <PUBCHEM_SHAPE_VOLUME>  (1) 
194.6

>  <PUBCHEM_COORDINATE_TYPE>  (1) 
2
5
10

$$$$
