49191
     RDKit          3D

 17 17  0  0  0  0  0  0  0  0999 V2000
   -0.4298   -1.4561   -2.1746 O   0  0  0  0  0  0  0  0  0  0  0  0
    0.0914    0.7691    1.9275 O   0  0  0  0  0  0  0  0  0  0  0  0
    3.0397   -2.5030    0.6403 O   0  0  0  0  0  0  0  0  0  0  0  0
    1.3593   -1.9081   -0.8116 N   0  0  0  0  0  0  0  0  0  0  0  0
    1.6192   -0.7970    1.2378 N   0  0  0  0  0  0  0  0  0  0  0  0
    0.0625    0.1362   -0.4132 C   0  0  0  0  0  0  0  0  0  0  0  0
   -1.4252    0.5164   -0.4304 C   0  0  0  0  0  0  0  0  0  0  0  0
    0.8772    1.2380   -1.1141 C   0  0  0  0  0  0  0  0  0  0  0  0
   -2.2721   -0.5676    0.2229 C   0  0  0  0  0  0  0  0  0  0  0  0
    0.2698   -1.1480   -1.2100 C   0  0  0  0  0  0  0  0  0  0  0  0
    0.5541    0.0665    1.0292 C   0  0  0  0  0  0  0  0  0  0  0  0
   -3.7484   -0.1718    0.2306 C   0  0  0  0  0  0  0  0  0  0  0  0
    0.8039    2.5491   -0.3835 C   0  0  0  0  0  0  0  0  0  0  0  0
    2.0837   -1.7752    0.3668 C   0  0  0  0  0  0  0  0  0  0  0  0
   -4.6050   -1.2283    0.9100 C   0  0  0  0  0  0  0  0  0  0  0  0
    1.8669    2.8272    0.6400 C   0  0  0  0  0  0  0  0  0  0  0  0
   -0.1470    3.4526   -0.6675 C   0  0  0  0  0  0  0  0  0  0  0  0
  1 10  2  0
  2 11  2  0
  3 14  2  0
  4 10  1  0
  4 14  1  0
  5 11  1  0
  5 14  1  0
  6  7  1  0
  6  8  1  0
  6 10  1  0
  6 11  1  0
  7  9  1  0
  8 13  1  0
  9 12  1  0
 12 15  1  0
 13 16  1  0
 13 17  2  0
M  END
>  <PUBCHEM_COMPOUND_CID>  (1) 
49191

>  <PUBCHEM_CONFORMER_RMSD>  (1) 
0.8

>  <PUBCHEM_CONFORMER_DIVERSEORDER>  (1) 
1
8
6
7
12
10
13
9
4
11
5
3
2

>  <PUBCHEM_MMFF94_PARTIAL_CHARGES>  (1) 
17
1 -0.57
10 0.57
11 0.57
13 -0.28
14 0.69
16 0.14
17 -0.3
2 -0.57
26 0.37
27 0.37
3 -0.57
34 0.15
35 0.15
4 -0.49
5 -0.49
6 0.12
8 0.14

>  <PUBCHEM_EFFECTIVE_ROTOR_COUNT>  (1) 
5.6

>  <PUBCHEM_PHARMACOPHORE_FEATURES>  (1) 
7
1 1 acceptor
1 15 hydrophobe
1 2 acceptor
1 3 acceptor
1 4 donor
1 5 donor
6 4 5 6 10 11 14 rings

>  <PUBCHEM_HEAVY_ATOM_COUNT>  (1) 
17

>  <PUBCHEM_ATOM_DEF_STEREO_COUNT>  (1) 
0

>  <PUBCHEM_ATOM_UDEF_STEREO_COUNT>  (1) 
0

>  <PUBCHEM_BOND_DEF_STEREO_COUNT>  (1) 
0

>  <PUBCHEM_BOND_UDEF_STEREO_COUNT>  (1) 
0

>  <PUBCHEM_ISOTOPIC_ATOM_COUNT>  (1) 
0

>  <PUBCHEM_COMPONENT_COUNT>  (1) 
1

>  <PUBCHEM_CACTVS_TAUTO_COUNT>  (1) 
5

>  <PUBCHEM_CONFORMER_ID>  (1) 
0000C02700000001

>  <PUBCHEM_MMFF94_ENERGY>  (1) 
42.0485

>  <PUBCHEM_FEATURE_SELFOVERLAP>  (1) 
35.563

>  <PUBCHEM_SHAPE_FINGERPRINT>  (1) 
10610426 29 17241324668463991058
10702982 57 17690556811543757684
10922049 32 17832159576911361509
11578080 2 16444444833114593996
12138202 97 17256525215107290940
12423570 1 8924914218632832574
12532896 13 17547579635161615205
12592029 89 18265341783693712024
13134695 92 18337099103851821525
14787075 74 17967820457289228434
14817 1 17613127708003667340
16945 1 18337942493394017980
18534176 82 17547559384643554414
20600515 1 17975138634510519693
21524375 3 17766851893689150509
22344851 341 17981895442711157198
23419403 2 17896577566712046652
23557571 272 17836362653793422926
2748010 2 17697851719391549776
276578 36 18056765561839157473
305870 269 18194962082964967349
394222 165 18056496159962697361
430814 3 17980759664437607949
68419 9 17625801035565734751
7364860 26 18336550529079950129
81228 2 17620488912893157789
81539 233 18044942517706281005
9999458 23 18047484592763373429

>  <PUBCHEM_SHAPE_MULTIPOLES>  (1) 
322.28
4.59
3.37
1.49
8.05
1.22
0.15
-1.08
-1.77
-3.58
0.28
-0.16
-0.33
-0.16

>  <PUBCHEM_SHAPE_SELFOVERLAP>  (1) 
655.572

>  <PUBCHEM_SHAPE_VOLUME>  (1) 
184.6

>  <PUBCHEM_COORDINATE_TYPE>  (1) 
2
5
10

$$$$
