49212
     RDKit          3D

 21 22  0  0  1  0  0  0  0  0999 V2000
    0.7818    1.0576   -2.1938 O   0  0  0  0  0  0  0  0  0  0  0  0
    1.0046   -0.3903    2.2676 O   0  0  0  0  0  0  0  0  0  0  0  0
    4.2007    2.4177    0.5479 O   0  0  0  0  0  0  0  0  0  0  0  0
    2.5422    1.6568   -0.8506 N   0  0  0  0  0  0  0  0  0  0  0  0
    2.6539    0.9330    1.3779 N   0  0  0  0  0  0  0  0  0  0  0  0
    1.1050   -0.2035   -0.1480 C   0  0  0  0  0  0  0  0  0  0  0  0
    1.8745   -1.4596   -0.5943 C   0  0  0  0  0  0  0  0  0  0  0  0
   -0.4020   -0.4978   -0.1682 C   0  0  0  0  0  0  0  0  0  0  0  0
    1.6297   -2.5991    0.4076 C   0  0  0  0  0  0  0  0  0  0  0  0
    1.4230    0.8966   -1.1557 C   0  0  0  0  0  0  0  0  0  0  0  0
    1.5449    0.1061    1.2794 C   0  0  0  0  0  0  0  0  0  0  0  0
    1.4645   -1.8319   -2.0179 C   0  0  0  0  0  0  0  0  0  0  0  0
   -1.2013    0.7578    0.1516 C   0  0  0  0  0  0  0  0  0  0  0  0
    2.4033   -3.8684    0.0803 C   0  0  0  0  0  0  0  0  0  0  0  0
   -2.6820    0.4773    0.1292 C   0  0  0  0  0  0  0  0  0  0  0  0
    3.2118    1.7054    0.3662 C   0  0  0  0  0  0  0  0  0  0  0  0
   -3.3863    0.6273   -1.0564 C   0  0  0  0  0  0  0  0  0  0  0  0
   -3.3171    0.0734    1.2943 C   0  0  0  0  0  0  0  0  0  0  0  0
   -4.7566    0.3675   -1.0774 C   0  0  0  0  0  0  0  0  0  0  0  0
   -4.6875   -0.1864    1.2732 C   0  0  0  0  0  0  0  0  0  0  0  0
   -5.4071   -0.0394    0.0872 C   0  0  0  0  0  0  0  0  0  0  0  0
  1 10  2  0
  2 11  2  0
  3 16  2  0
  4 10  1  0
  4 16  1  0
  5 11  1  0
  5 16  1  0
  6  7  1  0
  6  8  1  0
  6 10  1  0
  6 11  1  0
  7  9  1  0
  7 12  1  0
  8 13  1  0
  9 14  1  0
 13 15  1  0
 15 17  2  0
 15 18  1  0
 17 19  1  0
 18 20  2  0
 19 21  2  0
 20 21  1  0
M  END
>  <PUBCHEM_COMPOUND_CID>  (1) 
49212

>  <PUBCHEM_CONFORMER_RMSD>  (1) 
0.8

>  <PUBCHEM_CONFORMER_DIVERSEORDER>  (1) 
1
11
10
4
8
9
3
7
2
5
6

>  <PUBCHEM_MMFF94_PARTIAL_CHARGES>  (1) 
23
1 -0.57
10 0.57
11 0.57
13 0.14
15 -0.14
16 0.69
17 -0.15
18 -0.15
19 -0.15
2 -0.57
20 -0.15
21 -0.15
3 -0.57
35 0.37
36 0.37
37 0.15
38 0.15
39 0.15
4 -0.49
40 0.15
41 0.15
5 -0.49
6 0.12

>  <PUBCHEM_EFFECTIVE_ROTOR_COUNT>  (1) 
5.6

>  <PUBCHEM_PHARMACOPHORE_FEATURES>  (1) 
9
1 1 acceptor
1 12 hydrophobe
1 14 hydrophobe
1 2 acceptor
1 3 acceptor
1 4 donor
1 5 donor
6 15 17 18 19 20 21 rings
6 4 5 6 10 11 16 rings

>  <PUBCHEM_HEAVY_ATOM_COUNT>  (1) 
21

>  <PUBCHEM_ATOM_DEF_STEREO_COUNT>  (1) 
0

>  <PUBCHEM_ATOM_UDEF_STEREO_COUNT>  (1) 
1

>  <PUBCHEM_BOND_DEF_STEREO_COUNT>  (1) 
0

>  <PUBCHEM_BOND_UDEF_STEREO_COUNT>  (1) 
0

>  <PUBCHEM_ISOTOPIC_ATOM_COUNT>  (1) 
0

>  <PUBCHEM_COMPONENT_COUNT>  (1) 
1

>  <PUBCHEM_CACTVS_TAUTO_COUNT>  (1) 
5

>  <PUBCHEM_CONFORMER_ID>  (1) 
0000C03C00000001

>  <PUBCHEM_MMFF94_ENERGY>  (1) 
65.929

>  <PUBCHEM_FEATURE_SELFOVERLAP>  (1) 
45.712

>  <PUBCHEM_SHAPE_FINGERPRINT>  (1) 
11405975 8 18196655099602774649
12592029 89 18411700972455374242
13224815 77 17775849004334426565
13296908 3 18260553282201321237
13533116 47 18342178830962041507
13955234 65 18411703166450608451
14252887 29 18186807963289337265
14289901 80 18342449327696329665
16945 1 18339356367053797938
17980427 23 17169831317148336084
1813 80 17771354067276940662
18186145 218 9943806673548612157
19078846 21 16343150099976491883
204376 136 18267021832970930784
20559304 39 16702018617623687795
20645477 70 18261106340750458679
21054139 6 18056747952626361503
21421861 104 17773049565561507683
21756936 100 16954517310226569020
2255824 54 18200596895326395927
23419403 2 17551475913955411786
23557571 272 17313383388294722701
23559900 14 17822580395830048583
239999 70 17676496051021540195
2637199 183 16486978443960562149
312423 11 17988371356151380073
427121 178 18201442527210416002
474 4 17916304016490467673
5895379 119 14129885952473317959
7364860 26 18410293575558972402
81539 233 18410292540508562900
9709674 26 17676496055670097995
9999458 23 18413388752752593836

>  <PUBCHEM_SHAPE_MULTIPOLES>  (1) 
404.6
8.68
2.64
1.75
12.83
2.24
-0.14
-1.67
0.88
-5.02
-0.03
-0.19
-0.04
0.53

>  <PUBCHEM_SHAPE_SELFOVERLAP>  (1) 
854.809

>  <PUBCHEM_SHAPE_VOLUME>  (1) 
224.1

>  <PUBCHEM_COORDINATE_TYPE>  (1) 
2
5
10

$$$$
