49247
     RDKit          3D

 19 19  0  0  0  0  0  0  0  0999 V2000
    0.0757    0.9145    1.7083 O   0  0  0  0  0  0  0  0  0  0  0  0
   -2.6089   -1.4406   -1.2396 O   0  0  0  0  0  0  0  0  0  0  0  0
    1.7856   -2.6270   -0.7650 O   0  0  0  0  0  0  0  0  0  0  0  0
    3.2239    0.4724   -0.8737 O   0  0  0  0  0  0  0  0  0  0  0  0
    1.0487   -0.7270    0.3746 N   0  0  0  0  0  0  0  0  0  0  0  0
   -0.3863   -1.9702   -1.0347 N   0  0  0  0  0  0  0  0  0  0  0  0
    4.1476    0.9285    1.1818 N   0  0  0  0  0  0  0  0  0  0  0  0
   -1.1392    0.2167   -0.2576 C   0  0  0  0  0  0  0  0  0  0  0  0
   -2.3839    0.7911    0.4372 C   0  0  0  0  0  0  0  0  0  0  0  0
   -0.7318    1.1512   -1.4111 C   0  0  0  0  0  0  0  0  0  0  0  0
    0.0288    0.1719    0.7260 C   0  0  0  0  0  0  0  0  0  0  0  0
   -1.4779   -1.1348   -0.8647 C   0  0  0  0  0  0  0  0  0  0  0  0
    0.8925   -1.8168   -0.5036 C   0  0  0  0  0  0  0  0  0  0  0  0
    2.3170   -0.6228    1.0865 C   0  0  0  0  0  0  0  0  0  0  0  0
   -2.8094   -0.0840    1.5688 C   0  0  0  0  0  0  0  0  0  0  0  0
   -0.3111    2.4862   -0.8907 C   0  0  0  0  0  0  0  0  0  0  0  0
    3.2431    0.3126    0.3438 C   0  0  0  0  0  0  0  0  0  0  0  0
   -4.0147   -0.6587    1.6494 C   0  0  0  0  0  0  0  0  0  0  0  0
   -0.8998    3.6368   -1.2355 C   0  0  0  0  0  0  0  0  0  0  0  0
  1 11  2  0
  2 12  2  0
  3 13  2  0
  4 17  2  0
  5 11  1  0
  5 13  1  0
  5 14  1  0
  6 12  1  0
  6 13  1  0
  7 17  1  0
  8  9  1  0
  8 10  1  0
  8 11  1  0
  8 12  1  0
  9 15  1  0
 10 16  1  0
 14 17  1  0
 15 18  2  0
 16 19  2  0
M  END
>  <PUBCHEM_COMPOUND_CID>  (1) 
49247

>  <PUBCHEM_CONFORMER_RMSD>  (1) 
0.8

>  <PUBCHEM_CONFORMER_DIVERSEORDER>  (1) 
2
4
6
33
8
20
5
26
25
22
35
31
29
38
30
13
7
11
16
32
19
18
9
37
23
36
3
15
34
21
10
17
24
14
12
27
28
1

>  <PUBCHEM_MMFF94_PARTIAL_CHARGES>  (1) 
28
1 -0.57
10 0.14
11 0.57
12 0.57
13 0.69
14 0.36
15 -0.29
16 -0.29
17 0.57
18 -0.3
19 -0.3
2 -0.57
24 0.37
27 0.15
28 0.15
29 0.15
3 -0.57
30 0.15
31 0.15
32 0.15
33 0.37
34 0.37
4 -0.57
5 -0.42
6 -0.49
7 -0.8
8 0.12
9 0.14

>  <PUBCHEM_EFFECTIVE_ROTOR_COUNT>  (1) 
6.6

>  <PUBCHEM_PHARMACOPHORE_FEATURES>  (1) 
9
1 1 acceptor
1 18 hydrophobe
1 19 hydrophobe
1 2 acceptor
1 3 acceptor
1 4 acceptor
1 6 donor
1 7 donor
6 5 6 8 11 12 13 rings

>  <PUBCHEM_HEAVY_ATOM_COUNT>  (1) 
19

>  <PUBCHEM_ATOM_DEF_STEREO_COUNT>  (1) 
0

>  <PUBCHEM_ATOM_UDEF_STEREO_COUNT>  (1) 
0

>  <PUBCHEM_BOND_DEF_STEREO_COUNT>  (1) 
0

>  <PUBCHEM_BOND_UDEF_STEREO_COUNT>  (1) 
0

>  <PUBCHEM_ISOTOPIC_ATOM_COUNT>  (1) 
0

>  <PUBCHEM_COMPONENT_COUNT>  (1) 
1

>  <PUBCHEM_CACTVS_TAUTO_COUNT>  (1) 
6

>  <PUBCHEM_CONFORMER_ID>  (1) 
0000C05F00000002

>  <PUBCHEM_MMFF94_ENERGY>  (1) 
47.8086

>  <PUBCHEM_FEATURE_SELFOVERLAP>  (1) 
45.672

>  <PUBCHEM_SHAPE_FINGERPRINT>  (1) 
11132069 177 18343013415399164770
12403814 3 18409156710378966761
12423570 1 10553608157111089807
13083527 12 18045796825772756171
13214271 11 18186800279381874201
13380535 21 17846504716029851535
14614273 12 18199729428070404438
14787075 74 16879644892899979864
14817 1 13195634491632883821
14955137 171 18123499273135704873
15375462 478 17749103392278152992
16945 1 18131910455657665163
17844478 74 18336554793729410363
18186145 218 17989485225960386416
18981168 100 17984696719329477400
21524375 3 17179376916366229973
23419403 2 17127077623889385869
23557571 272 17968107360724500705
23558518 356 17756695348132546613
2748010 2 17981039717774726132
3250762 1 17831021230136229179
45790113 53 17981049613174076494
5845 1 12073067376227492361
59554788 62 18341608217900688703
6049 1 18120945996814337342
68419 9 17769391739958480597
81228 2 17909248515115951986
9999458 23 17846229894247217585

>  <PUBCHEM_SHAPE_MULTIPOLES>  (1) 
352.59
5.23
2.81
1.66
1.96
2.35
0.28
-0.86
2.68
-0.45
-1.63
-0.58
-0.17
0.64

>  <PUBCHEM_SHAPE_SELFOVERLAP>  (1) 
728.193

>  <PUBCHEM_SHAPE_VOLUME>  (1) 
198.3

>  <PUBCHEM_COORDINATE_TYPE>  (1) 
2
5
10

$$$$
