49258
     RDKit          3D

 21 22  0  0  0  0  0  0  0  0999 V2000
    2.2471   -0.0914   -2.4557 O   0  0  0  0  0  0  0  0  0  0  0  0
    1.7029    0.5065    2.1699 O   0  0  0  0  0  0  0  0  0  0  0  0
   -2.4274   -0.5886   -0.7296 O   0  0  0  0  0  0  0  0  0  0  0  0
    4.8958   -2.3531    0.5319 O   0  0  0  0  0  0  0  0  0  0  0  0
    3.6350   -1.1448   -0.9633 N   0  0  0  0  0  0  0  0  0  0  0  0
    3.3626   -0.8466    1.3473 N   0  0  0  0  0  0  0  0  0  0  0  0
    2.2702    0.7360   -0.1764 C   0  0  0  0  0  0  0  0  0  0  0  0
    0.8336    1.2262   -0.4089 C   0  0  0  0  0  0  0  0  0  0  0  0
    3.2307    1.9380   -0.2186 C   0  0  0  0  0  0  0  0  0  0  0  0
   -0.1343    0.0562   -0.4870 C   0  0  0  0  0  0  0  0  0  0  0  0
    2.6784   -0.2018   -1.3082 C   0  0  0  0  0  0  0  0  0  0  0  0
    2.3810    0.1245    1.2166 C   0  0  0  0  0  0  0  0  0  0  0  0
    2.9242    2.9147    0.8943 C   0  0  0  0  0  0  0  0  0  0  0  0
   -1.5649    0.5393   -0.6782 C   0  0  0  0  0  0  0  0  0  0  0  0
    4.0370   -1.4955    0.3199 C   0  0  0  0  0  0  0  0  0  0  0  0
   -3.7123   -0.4053   -0.2888 C   0  0  0  0  0  0  0  0  0  0  0  0
   -4.3108    0.8429   -0.4137 C   0  0  0  0  0  0  0  0  0  0  0  0
   -4.4028   -1.4699    0.2788 C   0  0  0  0  0  0  0  0  0  0  0  0
   -5.6181    1.0295    0.0356 C   0  0  0  0  0  0  0  0  0  0  0  0
   -5.7102   -1.2833    0.7279 C   0  0  0  0  0  0  0  0  0  0  0  0
   -6.3178   -0.0335    0.6064 C   0  0  0  0  0  0  0  0  0  0  0  0
  1 11  2  0
  2 12  2  0
  3 14  1  0
  3 16  1  0
  4 15  2  0
  5 11  1  0
  5 15  1  0
  6 12  1  0
  6 15  1  0
  7  8  1  0
  7  9  1  0
  7 11  1  0
  7 12  1  0
  8 10  1  0
  9 13  1  0
 10 14  1  0
 16 17  2  0
 16 18  1  0
 17 19  1  0
 18 20  2  0
 19 21  2  0
 20 21  1  0
M  END
>  <PUBCHEM_COMPOUND_CID>  (1) 
49258

>  <PUBCHEM_CONFORMER_RMSD>  (1) 
0.8

>  <PUBCHEM_CONFORMER_DIVERSEORDER>  (1) 
1
21
39
17
53
45
44
62
52
56
3
61
32
20
7
42
15
58
10
63
43
50
47
40
9
60
36
26
13
34
48
55
54
51
49
30
6
37
14
57
31
33
28
11
16
46
8
18
22
41
35
27
2
23
25
38
19
24
59
4
12
29
5

>  <PUBCHEM_MMFF94_PARTIAL_CHARGES>  (1) 
24
1 -0.57
11 0.57
12 0.57
14 0.28
15 0.69
16 0.08
17 -0.15
18 -0.15
19 -0.15
2 -0.57
20 -0.15
21 -0.15
3 -0.36
33 0.37
34 0.37
35 0.15
36 0.15
37 0.15
38 0.15
39 0.15
4 -0.57
5 -0.49
6 -0.49
7 0.12

>  <PUBCHEM_EFFECTIVE_ROTOR_COUNT>  (1) 
6.6

>  <PUBCHEM_PHARMACOPHORE_FEATURES>  (1) 
9
1 1 acceptor
1 13 hydrophobe
1 2 acceptor
1 3 acceptor
1 4 acceptor
1 5 donor
1 6 donor
6 16 17 18 19 20 21 rings
6 5 6 7 11 12 15 rings

>  <PUBCHEM_HEAVY_ATOM_COUNT>  (1) 
21

>  <PUBCHEM_ATOM_DEF_STEREO_COUNT>  (1) 
0

>  <PUBCHEM_ATOM_UDEF_STEREO_COUNT>  (1) 
0

>  <PUBCHEM_BOND_DEF_STEREO_COUNT>  (1) 
0

>  <PUBCHEM_BOND_UDEF_STEREO_COUNT>  (1) 
0

>  <PUBCHEM_ISOTOPIC_ATOM_COUNT>  (1) 
0

>  <PUBCHEM_COMPONENT_COUNT>  (1) 
1

>  <PUBCHEM_CACTVS_TAUTO_COUNT>  (1) 
5

>  <PUBCHEM_CONFORMER_ID>  (1) 
0000C06A00000001

>  <PUBCHEM_MMFF94_ENERGY>  (1) 
64.0404

>  <PUBCHEM_FEATURE_SELFOVERLAP>  (1) 
45.713

>  <PUBCHEM_SHAPE_FINGERPRINT>  (1) 
10366900 7 13551476947285527877
11089746 13 13398634947898584237
11405975 8 18343020004179735579
11545043 162 18334010558678327709
12553582 1 16008744723767480077
12596602 18 18336267929365328801
12616971 3 17989202655724778551
12616999 72 14273734027889813800
12633257 1 17132106961677962535
128620 24 8214142950130135733
13073987 5 18409169943859079313
13167823 11 17821730550803916267
13533116 47 18408604773154235123
13675066 3 18060420235832565517
13955234 65 18340763849301088496
14252887 29 18187643656123928916
14528608 73 9367340436255570387
14863182 85 15502639504449296096
15238133 3 16630531742960738672
15537594 2 16081085979115846483
15788980 27 18131066035402321519
17844677 252 18411143537213833793
18222031 100 16226045617838779847
20511986 3 13038615194765203523
20775530 9 17683504166239033970
212847 35 17418379107826437393
22950370 63 17749114378920378637
23503953 91 17346595296436536871
23559900 14 17774734129012631861
239999 70 17895194432692463720
3004659 81 17676207952899368711
3060560 45 14851609882076617458
3411729 13 18270961379466363704
3421961 26 18409444778568222552
351380 3 17312822663245149635
465052 167 18408326562031286262
5104073 3 18413113883525333569
5374978 207 17346882247507034169
54040823 5 18413112771176315140
5924683 9 17774431820015225407
8509985 295 17132113541567736611
90127 26 18410019857778521081
9841814 1 18272654541351927940

>  <PUBCHEM_SHAPE_MULTIPOLES>  (1) 
398.73
13.87
2.06
1.45
19.83
0.47
0.09
-3.55
-2.51
-2.61
-0.52
-1.49
-0.02
0.48

>  <PUBCHEM_SHAPE_SELFOVERLAP>  (1) 
839.161

>  <PUBCHEM_SHAPE_VOLUME>  (1) 
221.3

>  <PUBCHEM_COORDINATE_TYPE>  (1) 
2
5
10

$$$$
