49261
     RDKit          3D

 15 15  0  0  0  0  0  0  0  0999 V2000
   -0.1668    2.3438   -0.1657 O   0  0  0  0  0  0  0  0  0  0  0  0
    0.2218   -2.4170   -0.4836 O   0  0  0  0  0  0  0  0  0  0  0  0
    3.8272    0.2149    0.5517 O   0  0  0  0  0  0  0  0  0  0  0  0
    1.8206    1.2563    0.1506 N   0  0  0  0  0  0  0  0  0  0  0  0
    2.0109   -1.0743   -0.0059 N   0  0  0  0  0  0  0  0  0  0  0  0
   -0.1284   -0.0285   -0.6349 C   0  0  0  0  0  0  0  0  0  0  0  0
   -1.5177   -0.1832   -0.0024 C   0  0  0  0  0  0  0  0  0  0  0  0
   -0.2679    0.0558   -2.1317 C   0  0  0  0  0  0  0  0  0  0  0  0
    0.4783    1.2937   -0.1864 C   0  0  0  0  0  0  0  0  0  0  0  0
    0.6884   -1.2831   -0.3588 C   0  0  0  0  0  0  0  0  0  0  0  0
   -1.5442   -0.8973    1.3287 C   0  0  0  0  0  0  0  0  0  0  0  0
   -2.6102    0.2786   -0.6407 C   0  0  0  0  0  0  0  0  0  0  0  0
   -1.4207    0.0651    2.5009 C   0  0  0  0  0  0  0  0  0  0  0  0
    2.6361    0.1382    0.2450 C   0  0  0  0  0  0  0  0  0  0  0  0
   -4.0273    0.2371   -0.1669 C   0  0  0  0  0  0  0  0  0  0  0  0
  1  9  2  0
  2 10  2  0
  3 14  2  0
  4  9  1  0
  4 14  1  0
  5 10  1  0
  5 14  1  0
  6  7  1  0
  6  8  1  0
  6  9  1  0
  6 10  1  0
  7 11  1  0
  7 12  2  0
 11 13  1  0
 12 15  1  0
M  END
>  <PUBCHEM_COMPOUND_CID>  (1) 
49261

>  <PUBCHEM_CONFORMER_RMSD>  (1) 
0.6

>  <PUBCHEM_CONFORMER_DIVERSEORDER>  (1) 
1
6
5
2
4
3

>  <PUBCHEM_MMFF94_PARTIAL_CHARGES>  (1) 
16
1 -0.57
10 0.57
11 0.14
12 -0.29
14 0.69
15 0.14
2 -0.57
21 0.15
22 0.37
23 0.37
3 -0.57
4 -0.49
5 -0.49
6 0.26
7 -0.28
9 0.57

>  <PUBCHEM_EFFECTIVE_ROTOR_COUNT>  (1) 
2.6

>  <PUBCHEM_PHARMACOPHORE_FEATURES>  (1) 
8
1 1 acceptor
1 13 hydrophobe
1 15 hydrophobe
1 2 acceptor
1 3 acceptor
1 4 donor
1 5 donor
6 4 5 6 9 10 14 rings

>  <PUBCHEM_HEAVY_ATOM_COUNT>  (1) 
15

>  <PUBCHEM_ATOM_DEF_STEREO_COUNT>  (1) 
0

>  <PUBCHEM_ATOM_UDEF_STEREO_COUNT>  (1) 
0

>  <PUBCHEM_BOND_DEF_STEREO_COUNT>  (1) 
0

>  <PUBCHEM_BOND_UDEF_STEREO_COUNT>  (1) 
1

>  <PUBCHEM_ISOTOPIC_ATOM_COUNT>  (1) 
0

>  <PUBCHEM_COMPONENT_COUNT>  (1) 
1

>  <PUBCHEM_CACTVS_TAUTO_COUNT>  (1) 
5

>  <PUBCHEM_CONFORMER_ID>  (1) 
0000C06D00000001

>  <PUBCHEM_MMFF94_ENERGY>  (1) 
38.1142

>  <PUBCHEM_FEATURE_SELFOVERLAP>  (1) 
40.638

>  <PUBCHEM_SHAPE_FINGERPRINT>  (1) 
10219947 1 18412261731384474717
11471102 22 18336274495531365520
12423570 1 13864290466055959095
13024252 1 16153973695404869158
13581323 91 16153423948043694179
14993402 34 18201718487406979276
15207287 21 17894906326291841251
15775835 57 17703784834015935168
16945 1 17676753327798934309
19010151 120 18202281403132550321
20201158 50 18186799162521481235
20233049 118 14418120800039074823
20511035 2 17606132915918060501
21501502 16 18050849914292974216
22344851 262 18409725192698664831
22344851 341 17027106711050669517
23236772 104 17346605153386461539
23402539 116 17095510804159318799
23419403 2 17027942348204083239
2748010 2 18337676441702844222
5084963 1 17775003457863968398
528886 8 18341314656854248023
63268167 104 18131631183904205642
68250623 7 17837486358592110677
77492 1 17489582368365345935

>  <PUBCHEM_SHAPE_MULTIPOLES>  (1) 
281.12
4.49
1.66
1.6
0.17
0.05
-0.22
0.13
-0.78
-0.01
-0.05
0.39
-0.33
0.66

>  <PUBCHEM_SHAPE_SELFOVERLAP>  (1) 
578.829

>  <PUBCHEM_SHAPE_VOLUME>  (1) 
160.6

>  <PUBCHEM_COORDINATE_TYPE>  (1) 
2
5
10

$$$$
