49270
     RDKit          3D

 20 20  0  0  1  0  0  0  0  0999 V2000
   -2.2272   -1.9618   -0.5735 S   0  0  0  0  0  0  0  0  0  0  0  0
   -0.5580   -0.1107   -2.2130 O   0  0  0  0  0  0  0  0  0  0  0  0
    0.1695    1.1425    2.2536 O   0  0  0  0  0  0  0  0  0  0  0  0
   -2.1738    3.8689   -0.5979 O   0  0  0  0  0  0  0  0  0  0  0  0
   -1.4491    1.8310   -1.3773 N   0  0  0  0  0  0  0  0  0  0  0  0
   -1.0850    2.4573    0.8538 N   0  0  0  0  0  0  0  0  0  0  0  0
   -0.6326    0.1367    0.1981 C   0  0  0  0  0  0  0  0  0  0  0  0
    0.5738   -0.8108    0.2674 C   0  0  0  0  0  0  0  0  0  0  0  0
   -1.9023   -0.6250    0.6188 C   0  0  0  0  0  0  0  0  0  0  0  0
    1.8806   -0.0764   -0.0317 C   0  0  0  0  0  0  0  0  0  0  0  0
   -0.8415    0.5916   -1.2428 C   0  0  0  0  0  0  0  0  0  0  0  0
   -0.4442    1.2757    1.1951 C   0  0  0  0  0  0  0  0  0  0  0  0
    3.0837   -1.0167    0.0711 C   0  0  0  0  0  0  0  0  0  0  0  0
   -1.7549   -1.1977    2.0187 C   0  0  0  0  0  0  0  0  0  0  0  0
    4.3938   -0.2706   -0.1911 C   0  0  0  0  0  0  0  0  0  0  0  0
   -1.6234    2.7874   -0.3842 C   0  0  0  0  0  0  0  0  0  0  0  0
    5.6325   -1.1617   -0.0769 C   0  0  0  0  0  0  0  0  0  0  0  0
   -3.7245   -2.6273    0.1875 C   0  0  0  0  0  0  0  0  0  0  0  0
    6.9352   -0.4307   -0.3619 C   0  0  0  0  0  0  0  0  0  0  0  0
   -4.2527   -3.8018   -0.6139 C   0  0  0  0  0  0  0  0  0  0  0  0
  1  9  1  0
  1 18  1  0
  2 11  2  0
  3 12  2  0
  4 16  2  0
  5 11  1  0
  5 16  1  0
  6 12  1  0
  6 16  1  0
  7  8  1  0
  7  9  1  0
  7 11  1  0
  7 12  1  0
  8 10  1  0
  9 14  1  0
 10 13  1  0
 13 15  1  0
 15 17  1  0
 17 19  1  0
 18 20  1  0
M  END
>  <PUBCHEM_COMPOUND_CID>  (1) 
49270

>  <PUBCHEM_CONFORMER_RMSD>  (1) 
0.8

>  <PUBCHEM_CONFORMER_DIVERSEORDER>  (1) 
1
74
69
57
72
32
83
70
71
35
10
59
84
81
85
36
66
58
15
63
4
82
77
3
42
79
76
23
47
86
6
68
80
75
46
26
22
65
21
53
67
44
17
12
16
64
45
60
14
73
11
51
2
13
39
40
25
50
43
31
27
5
56
28
55
49
9
20
78
54
7
38
30
18
34
41
48
8
24
62
33
29
52
19
37
61

>  <PUBCHEM_MMFF94_PARTIAL_CHARGES>  (1) 
14
1 -0.46
11 0.57
12 0.57
16 0.69
18 0.23
2 -0.57
3 -0.57
33 0.37
34 0.37
4 -0.57
5 -0.49
6 -0.49
7 0.12
9 0.23

>  <PUBCHEM_EFFECTIVE_ROTOR_COUNT>  (1) 
8.6

>  <PUBCHEM_PHARMACOPHORE_FEATURES>  (1) 
10
1 14 hydrophobe
1 19 hydrophobe
1 2 acceptor
1 20 hydrophobe
1 3 acceptor
1 4 acceptor
1 5 donor
1 6 donor
5 8 10 13 15 17 hydrophobe
6 5 6 7 11 12 16 rings

>  <PUBCHEM_HEAVY_ATOM_COUNT>  (1) 
20

>  <PUBCHEM_ATOM_DEF_STEREO_COUNT>  (1) 
0

>  <PUBCHEM_ATOM_UDEF_STEREO_COUNT>  (1) 
1

>  <PUBCHEM_BOND_DEF_STEREO_COUNT>  (1) 
0

>  <PUBCHEM_BOND_UDEF_STEREO_COUNT>  (1) 
0

>  <PUBCHEM_ISOTOPIC_ATOM_COUNT>  (1) 
0

>  <PUBCHEM_COMPONENT_COUNT>  (1) 
1

>  <PUBCHEM_CACTVS_TAUTO_COUNT>  (1) 
5

>  <PUBCHEM_CONFORMER_ID>  (1) 
0000C07600000001

>  <PUBCHEM_MMFF94_ENERGY>  (1) 
49.7207

>  <PUBCHEM_FEATURE_SELFOVERLAP>  (1) 
50.788

>  <PUBCHEM_SHAPE_FINGERPRINT>  (1) 
10764073 3 14544293001488848983
11069576 57 16402222830636632670
11101153 10 18115320007060099172
11315181 36 15140683601359563182
12293681 160 12902086726525187086
12788726 201 18261101946645630371
13024252 1 12468651507640314233
13134695 92 18047196533939427207
13631057 29 18410289233843337050
13955234 65 17330000604078810059
14142880 1 17968662601275052852
14508225 48 18335697303550832317
16945 1 18337658712378708369
17539 30 18410005529429771205
1813 80 18127144175725424871
200 152 18113619019078891602
20600515 1 17916330332060363241
20671657 53 18196376051008565303
21426921 1 18410011009887240030
23402539 116 17749111101444100426
23419403 2 17773580793239850097
23526113 38 17680985503021557787
23557571 272 18343304730499443566
283562 15 18333730221583620874
59755656 520 18118681015540279668
77188 2 18194401319461012757

>  <PUBCHEM_SHAPE_MULTIPOLES>  (1) 
387.87
9.47
3.73
1.56
22.26
1.83
0.3
-9.29
-1.56
-6.35
-0.73
-0.9
0.37
0.11

>  <PUBCHEM_SHAPE_SELFOVERLAP>  (1) 
759.77

>  <PUBCHEM_SHAPE_VOLUME>  (1) 
234.5

>  <PUBCHEM_COORDINATE_TYPE>  (1) 
2
5
10

$$$$
