49276
     RDKit          3D

 19 19  0  0  0  0  0  0  0  0999 V2000
    2.6448   -1.7379    0.2551 S   0  0  0  0  0  0  0  0  0  0  0  0
    0.2874   -0.1447    2.0476 O   0  0  0  0  0  0  0  0  0  0  0  0
    2.2295    0.3512   -2.1988 O   0  0  0  0  0  0  0  0  0  0  0  0
    1.9188    3.9175    0.6720 O   0  0  0  0  0  0  0  0  0  0  0  0
    1.0140    1.9059    1.3201 N   0  0  0  0  0  0  0  0  0  0  0  0
    1.9836    2.1538   -0.8014 N   0  0  0  0  0  0  0  0  0  0  0  0
    0.7067    0.1133   -0.3268 C   0  0  0  0  0  0  0  0  0  0  0  0
   -0.6819    0.3929   -0.9290 C   0  0  0  0  0  0  0  0  0  0  0  0
   -1.7905   -0.2698   -0.1115 C   0  0  0  0  0  0  0  0  0  0  0  0
    0.9862   -1.3959   -0.3752 C   0  0  0  0  0  0  0  0  0  0  0  0
   -3.1718    0.0381   -0.6944 C   0  0  0  0  0  0  0  0  0  0  0  0
    0.6653    0.5777    1.1257 C   0  0  0  0  0  0  0  0  0  0  0  0
    1.7252    0.8485   -1.1923 C   0  0  0  0  0  0  0  0  0  0  0  0
   -4.2819   -0.5948    0.1477 C   0  0  0  0  0  0  0  0  0  0  0  0
   -5.6873   -0.2969   -0.3792 C   0  0  0  0  0  0  0  0  0  0  0  0
    1.6424    2.7460    0.4086 C   0  0  0  0  0  0  0  0  0  0  0  0
    2.6424   -3.5363    0.0625 C   0  0  0  0  0  0  0  0  0  0  0  0
   -6.7930   -0.9449    0.4394 C   0  0  0  0  0  0  0  0  0  0  0  0
    3.9604   -4.1239    0.5298 C   0  0  0  0  0  0  0  0  0  0  0  0
  1 10  1  0
  1 17  1  0
  2 12  2  0
  3 13  2  0
  4 16  2  0
  5 12  1  0
  5 16  1  0
  6 13  1  0
  6 16  1  0
  7  8  1  0
  7 10  1  0
  7 12  1  0
  7 13  1  0
  8  9  1  0
  9 11  1  0
 11 14  1  0
 14 15  1  0
 15 18  1  0
 17 19  1  0
M  END
>  <PUBCHEM_COMPOUND_CID>  (1) 
49276

>  <PUBCHEM_CONFORMER_RMSD>  (1) 
0.8

>  <PUBCHEM_CONFORMER_DIVERSEORDER>  (1) 
1
74
68
53
44
87
77
42
94
56
9
43
55
21
46
88
52
70
78
48
93
89
75
50
80
16
20
91
51
7
66
76
39
36
60
84
45
71
79
15
82
31
64
58
49
6
83
65
72
67
90
18
5
54
41
59
40
3
30
81
92
34
62
85
86
37
69
27
2
63
22
25
33
26
13
61
12
11
29
47
57
35
14
10
23
38
8
28
4
17
19
32
73
24

>  <PUBCHEM_MMFF94_PARTIAL_CHARGES>  (1) 
14
1 -0.46
10 0.23
12 0.57
13 0.57
16 0.69
17 0.23
2 -0.57
3 -0.57
30 0.37
31 0.37
4 -0.57
5 -0.49
6 -0.49
7 0.12

>  <PUBCHEM_EFFECTIVE_ROTOR_COUNT>  (1) 
8.6

>  <PUBCHEM_PHARMACOPHORE_FEATURES>  (1) 
9
1 18 hydrophobe
1 19 hydrophobe
1 2 acceptor
1 3 acceptor
1 4 acceptor
1 5 donor
1 6 donor
5 8 9 11 14 15 hydrophobe
6 5 6 7 12 13 16 rings

>  <PUBCHEM_HEAVY_ATOM_COUNT>  (1) 
19

>  <PUBCHEM_ATOM_DEF_STEREO_COUNT>  (1) 
0

>  <PUBCHEM_ATOM_UDEF_STEREO_COUNT>  (1) 
0

>  <PUBCHEM_BOND_DEF_STEREO_COUNT>  (1) 
0

>  <PUBCHEM_BOND_UDEF_STEREO_COUNT>  (1) 
0

>  <PUBCHEM_ISOTOPIC_ATOM_COUNT>  (1) 
0

>  <PUBCHEM_COMPONENT_COUNT>  (1) 
1

>  <PUBCHEM_CACTVS_TAUTO_COUNT>  (1) 
5

>  <PUBCHEM_CONFORMER_ID>  (1) 
0000C07C00000001

>  <PUBCHEM_MMFF94_ENERGY>  (1) 
39.2915

>  <PUBCHEM_FEATURE_SELFOVERLAP>  (1) 
45.712

>  <PUBCHEM_SHAPE_FINGERPRINT>  (1) 
11265709 11 18195530290048192066
12532896 13 17837207447768911060
12730499 353 18265626557632489419
13004483 165 18123739856029918738
13134695 92 18268412569113938335
13533116 47 18408326597303511203
13955234 65 18411138082325507435
17980427 23 13468961911109354627
17980427 26 18126834113567633604
1813 80 18129105511238137710
19078846 21 17916877815841995329
20369508 70 18413110554482684175
20388580 30 18188214182452615982
20600515 1 17484805917823993408
20645477 70 18040435490990712543
20723712 36 13829258677181585258
22112679 90 17840052674834822944
2255824 54 18201439215906753559
23419403 2 17975663166455997892
23559900 14 17967251992940645159
3421961 26 18410008815037937707
54040823 5 18412548686776787718
6442390 28 17833554874425817755
7364860 26 18410005559214986790
77188 2 18267862787978697512
9999458 23 18268148828147227428

>  <PUBCHEM_SHAPE_MULTIPOLES>  (1) 
367.29
9.52
4.07
1.37
23.57
0.13
-0.04
8.76
0.43
-7.77
1.09
-0.69
-0.5
-0.16

>  <PUBCHEM_SHAPE_SELFOVERLAP>  (1) 
715.196

>  <PUBCHEM_SHAPE_VOLUME>  (1) 
223.1

>  <PUBCHEM_COORDINATE_TYPE>  (1) 
2
5
10

$$$$
