49282
     RDKit          3D

 17 17  0  0  1  0  0  0  0  0999 V2000
   -2.3144   -0.9099   -0.2845 S   0  0  0  0  0  0  0  0  0  0  0  0
    0.0136   -0.9503    1.9747 O   0  0  0  0  0  0  0  0  0  0  0  0
   -0.5026    0.8501   -2.2590 O   0  0  0  0  0  0  0  0  0  0  0  0
    3.4265   -1.2259   -1.1651 O   0  0  0  0  0  0  0  0  0  0  0  0
    1.8320   -0.9693    0.5213 N   0  0  0  0  0  0  0  0  0  0  0  0
    1.4819   -0.1340   -1.6628 N   0  0  0  0  0  0  0  0  0  0  0  0
   -0.0437    0.5747    0.1043 C   0  0  0  0  0  0  0  0  0  0  0  0
    0.5672    1.9083    0.5716 C   0  0  0  0  0  0  0  0  0  0  0  0
   -1.5646    0.6168    0.3217 C   0  0  0  0  0  0  0  0  0  0  0  0
    0.5713   -0.5322    0.9585 C   0  0  0  0  0  0  0  0  0  0  0  0
    0.2509    0.4342   -1.3801 C   0  0  0  0  0  0  0  0  0  0  0  0
   -0.0253    3.0662   -0.2219 C   0  0  0  0  0  0  0  0  0  0  0  0
    0.3382    2.0980    2.0659 C   0  0  0  0  0  0  0  0  0  0  0  0
    2.3361   -0.7940   -0.7821 C   0  0  0  0  0  0  0  0  0  0  0  0
    2.6127   -1.8005    1.4300 C   0  0  0  0  0  0  0  0  0  0  0  0
   -4.0406   -0.5411    0.1103 C   0  0  0  0  0  0  0  0  0  0  0  0
   -4.9392   -1.6911   -0.3028 C   0  0  0  0  0  0  0  0  0  0  0  0
  1  9  1  0
  1 16  1  0
  2 10  2  0
  3 11  2  0
  4 14  2  0
  5 10  1  0
  5 14  1  0
  5 15  1  0
  6 11  1  0
  6 14  1  0
  7  8  1  0
  7  9  1  0
  7 10  1  0
  7 11  1  0
  8 12  1  0
  8 13  1  0
 16 17  1  0
M  END
>  <PUBCHEM_COMPOUND_CID>  (1) 
49282

>  <PUBCHEM_CONFORMER_RMSD>  (1) 
0.6

>  <PUBCHEM_CONFORMER_DIVERSEORDER>  (1) 
2
13
11
10
9
15
8
7
14
12
4
5
16
18
17
1
6
3

>  <PUBCHEM_MMFF94_PARTIAL_CHARGES>  (1) 
14
1 -0.46
10 0.57
11 0.57
14 0.69
15 0.3
16 0.23
2 -0.57
27 0.37
3 -0.57
4 -0.57
5 -0.42
6 -0.49
7 0.12
9 0.23

>  <PUBCHEM_EFFECTIVE_ROTOR_COUNT>  (1) 
4.6

>  <PUBCHEM_PHARMACOPHORE_FEATURES>  (1) 
7
1 17 hydrophobe
1 2 acceptor
1 3 acceptor
1 4 acceptor
1 6 donor
3 8 12 13 hydrophobe
6 5 6 7 10 11 14 rings

>  <PUBCHEM_HEAVY_ATOM_COUNT>  (1) 
17

>  <PUBCHEM_ATOM_DEF_STEREO_COUNT>  (1) 
0

>  <PUBCHEM_ATOM_UDEF_STEREO_COUNT>  (1) 
1

>  <PUBCHEM_BOND_DEF_STEREO_COUNT>  (1) 
0

>  <PUBCHEM_BOND_UDEF_STEREO_COUNT>  (1) 
0

>  <PUBCHEM_ISOTOPIC_ATOM_COUNT>  (1) 
0

>  <PUBCHEM_COMPONENT_COUNT>  (1) 
1

>  <PUBCHEM_CACTVS_TAUTO_COUNT>  (1) 
3

>  <PUBCHEM_CONFORMER_ID>  (1) 
0000C08200000002

>  <PUBCHEM_MMFF94_ENERGY>  (1) 
49.3685

>  <PUBCHEM_FEATURE_SELFOVERLAP>  (1) 
35.522

>  <PUBCHEM_SHAPE_FINGERPRINT>  (1) 
11578080 2 17970322893787574221
12423570 1 11231360202452707017
12725867 57 18041547148411182477
14617773 55 17898300394111251936
14817 1 13634826203217500884
16945 1 17023481801380901068
17844478 74 16987993869794021274
20645477 70 18197492029915409807
21296965 67 18413110537154868255
21452121 199 15793664791528844115
22112679 90 18052853323273949857
23419403 2 17899096578016493252
3060560 45 16516243071727169247
4175511 376 18053118490064554821
430814 3 9943240364239798940
59915604 170 15213311785068869438
6786 2 17328030274287485077
7364860 26 17916022554487796929
81228 2 17913490129927079801
81539 233 17981882252946108613

>  <PUBCHEM_SHAPE_MULTIPOLES>  (1) 
326.13
5.35
2.46
1.86
7.83
1.87
0.07
-4.96
0.32
-0.81
-0.55
-1.01
0.11
0.02

>  <PUBCHEM_SHAPE_SELFOVERLAP>  (1) 
649.706

>  <PUBCHEM_SHAPE_VOLUME>  (1) 
196.9

>  <PUBCHEM_COORDINATE_TYPE>  (1) 
2
5
10

$$$$
