49291
     RDKit          3D

 19 19  0  0  0  0  0  0  0  0999 V2000
   -0.7014   -0.7116    1.9113 O   0  0  0  0  0  0  0  0  0  0  0  0
   -0.3129    1.2711   -2.3276 O   0  0  0  0  0  0  0  0  0  0  0  0
   -3.1634    3.0045    0.8231 O   0  0  0  0  0  0  0  0  0  0  0  0
   -2.0028    1.0862    1.3313 N   0  0  0  0  0  0  0  0  0  0  0  0
   -1.8093    2.0763   -0.7864 N   0  0  0  0  0  0  0  0  0  0  0  0
   -0.8542   -0.1576   -0.4445 C   0  0  0  0  0  0  0  0  0  0  0  0
    0.5291   -0.8013   -0.6189 C   0  0  0  0  0  0  0  0  0  0  0  0
    1.6427    0.1224   -0.1260 C   0  0  0  0  0  0  0  0  0  0  0  0
   -1.9317   -1.1121   -0.9895 C   0  0  0  0  0  0  0  0  0  0  0  0
    3.0168   -0.5360   -0.2706 C   0  0  0  0  0  0  0  0  0  0  0  0
   -1.1414    0.0388    1.0407 C   0  0  0  0  0  0  0  0  0  0  0  0
   -0.9296    1.1210   -1.2731 C   0  0  0  0  0  0  0  0  0  0  0  0
    4.1262    0.3755    0.2589 C   0  0  0  0  0  0  0  0  0  0  0  0
   -2.0001   -2.3946   -0.2094 C   0  0  0  0  0  0  0  0  0  0  0  0
    5.5208   -0.2462    0.1594 C   0  0  0  0  0  0  0  0  0  0  0  0
   -2.3927    2.1085    0.4745 C   0  0  0  0  0  0  0  0  0  0  0  0
   -2.9590   -2.4479    0.9450 C   0  0  0  0  0  0  0  0  0  0  0  0
   -1.2667   -3.4628   -0.5592 C   0  0  0  0  0  0  0  0  0  0  0  0
    6.6297    0.6659    0.6607 C   0  0  0  0  0  0  0  0  0  0  0  0
  1 11  2  0
  2 12  2  0
  3 16  2  0
  4 11  1  0
  4 16  1  0
  5 12  1  0
  5 16  1  0
  6  7  1  0
  6  9  1  0
  6 11  1  0
  6 12  1  0
  7  8  1  0
  8 10  1  0
  9 14  1  0
 10 13  1  0
 13 15  1  0
 14 17  1  0
 14 18  2  0
 15 19  1  0
M  END
>  <PUBCHEM_COMPOUND_CID>  (1) 
49291

>  <PUBCHEM_CONFORMER_RMSD>  (1) 
0.8

>  <PUBCHEM_CONFORMER_DIVERSEORDER>  (1) 
1
36
26
45
38
39
50
37
49
17
35
34
43
33
40
28
13
41
47
30
6
25
46
42
9
11
44
21
22
3
12
15
5
20
27
48
31
4
10
16
23
7
18
19
14
8
2
24
29
32

>  <PUBCHEM_MMFF94_PARTIAL_CHARGES>  (1) 
17
1 -0.57
11 0.57
12 0.57
14 -0.28
16 0.69
17 0.14
18 -0.3
2 -0.57
3 -0.57
30 0.37
31 0.37
37 0.15
38 0.15
4 -0.49
5 -0.49
6 0.12
9 0.14

>  <PUBCHEM_EFFECTIVE_ROTOR_COUNT>  (1) 
7.6

>  <PUBCHEM_PHARMACOPHORE_FEATURES>  (1) 
8
1 1 acceptor
1 19 hydrophobe
1 2 acceptor
1 3 acceptor
1 4 donor
1 5 donor
5 7 8 10 13 15 hydrophobe
6 4 5 6 11 12 16 rings

>  <PUBCHEM_HEAVY_ATOM_COUNT>  (1) 
19

>  <PUBCHEM_ATOM_DEF_STEREO_COUNT>  (1) 
0

>  <PUBCHEM_ATOM_UDEF_STEREO_COUNT>  (1) 
0

>  <PUBCHEM_BOND_DEF_STEREO_COUNT>  (1) 
0

>  <PUBCHEM_BOND_UDEF_STEREO_COUNT>  (1) 
0

>  <PUBCHEM_ISOTOPIC_ATOM_COUNT>  (1) 
0

>  <PUBCHEM_COMPONENT_COUNT>  (1) 
1

>  <PUBCHEM_CACTVS_TAUTO_COUNT>  (1) 
5

>  <PUBCHEM_CONFORMER_ID>  (1) 
0000C08B00000001

>  <PUBCHEM_MMFF94_ENERGY>  (1) 
41.6351

>  <PUBCHEM_FEATURE_SELFOVERLAP>  (1) 
40.637

>  <PUBCHEM_SHAPE_FINGERPRINT>  (1) 
11101153 10 18046910652664309892
11315181 36 18187358866471312504
11405975 8 18338794504159853186
12173636 292 18270400477636849172
12916754 54 18336261362265107836
13004483 165 18195808698302085431
13024252 1 15357694176119197759
13296909 8 18341898510635077564
13583140 156 17704349983773210458
13994607 96 17418379086378124288
14142880 1 18334293149876900503
16945 1 18341625840499715767
17093844 174 8574440816499405972
17844677 252 18342180012236218688
17980427 26 17623287169901653637
200 152 16878215476603284074
20600515 1 17415022397759122491
20645477 56 18341052921927193728
21339142 149 18040997349663348466
22112679 90 17763784200418115007
22224240 67 18199478679954796889
2306618 200 18413105082804884762
23402539 116 17676761072015683734
23419403 2 17977362139343409389
27216 239 18411139125971080560
312423 11 17896049887599759204
5104073 3 18410281503318358266
5924683 9 18334851745292938866
77188 2 17837769289873892875
81228 2 18260551147022657911

>  <PUBCHEM_SHAPE_MULTIPOLES>  (1) 
363.44
8.71
3.09
1.45
24.02
0.53
0.16
-0.73
-2.61
-5.03
-0.05
-0.82
-0.36
-0.07

>  <PUBCHEM_SHAPE_SELFOVERLAP>  (1) 
730.52

>  <PUBCHEM_SHAPE_VOLUME>  (1) 
210.7

>  <PUBCHEM_COORDINATE_TYPE>  (1) 
2
5
10

$$$$
