49290
     RDKit          3D

 16 16  0  0  0  0  0  0  0  0999 V2000
   -0.8534   -0.6639   -2.2925 O   0  0  0  0  0  0  0  0  0  0  0  0
   -0.8371   -0.1917    2.3794 O   0  0  0  0  0  0  0  0  0  0  0  0
   -3.9108    2.0399   -0.1951 O   0  0  0  0  0  0  0  0  0  0  0  0
   -2.4423    0.6085   -1.2345 N   0  0  0  0  0  0  0  0  0  0  0  0
   -2.4336    0.8449    1.0992 N   0  0  0  0  0  0  0  0  0  0  0  0
   -1.1163   -0.9672    0.0989 C   0  0  0  0  0  0  0  0  0  0  0  0
    0.3535   -1.4101    0.1385 C   0  0  0  0  0  0  0  0  0  0  0  0
    1.3010   -0.2215   -0.0223 C   0  0  0  0  0  0  0  0  0  0  0  0
    2.7647   -0.6625    0.0511 C   0  0  0  0  0  0  0  0  0  0  0  0
   -2.0237   -2.2038    0.2273 C   0  0  0  0  0  0  0  0  0  0  0  0
   -1.4202   -0.3286   -1.2526 C   0  0  0  0  0  0  0  0  0  0  0  0
   -1.4110   -0.0708    1.2974 C   0  0  0  0  0  0  0  0  0  0  0  0
    3.7106    0.5342   -0.0719 C   0  0  0  0  0  0  0  0  0  0  0  0
    5.1890    0.1504    0.0195 C   0  0  0  0  0  0  0  0  0  0  0  0
   -3.0042    1.2094   -0.1144 C   0  0  0  0  0  0  0  0  0  0  0  0
    6.1339    1.3329   -0.1279 C   0  0  0  0  0  0  0  0  0  0  0  0
  1 11  2  0
  2 12  2  0
  3 15  2  0
  4 11  1  0
  4 15  1  0
  5 12  1  0
  5 15  1  0
  6  7  1  0
  6 10  1  0
  6 11  1  0
  6 12  1  0
  7  8  1  0
  8  9  1  0
  9 13  1  0
 13 14  1  0
 14 16  1  0
M  END
>  <PUBCHEM_COMPOUND_CID>  (1) 
49290

>  <PUBCHEM_CONFORMER_RMSD>  (1) 
0.6

>  <PUBCHEM_CONFORMER_DIVERSEORDER>  (1) 
1
19
33
24
39
10
43
31
17
13
36
21
29
2
28
8
34
27
37
15
41
16
38
12
18
4
30
32
22
42
25
35
9
20
6
40
7
26
5
14
3
11
23

>  <PUBCHEM_MMFF94_PARTIAL_CHARGES>  (1) 
11
1 -0.57
11 0.57
12 0.57
15 0.69
2 -0.57
3 -0.57
30 0.37
31 0.37
4 -0.49
5 -0.49
6 0.12

>  <PUBCHEM_EFFECTIVE_ROTOR_COUNT>  (1) 
5.6

>  <PUBCHEM_PHARMACOPHORE_FEATURES>  (1) 
8
1 1 acceptor
1 16 hydrophobe
1 2 acceptor
1 3 acceptor
1 4 donor
1 5 donor
5 7 8 9 13 14 hydrophobe
6 4 5 6 11 12 15 rings

>  <PUBCHEM_HEAVY_ATOM_COUNT>  (1) 
16

>  <PUBCHEM_ATOM_DEF_STEREO_COUNT>  (1) 
0

>  <PUBCHEM_ATOM_UDEF_STEREO_COUNT>  (1) 
0

>  <PUBCHEM_BOND_DEF_STEREO_COUNT>  (1) 
0

>  <PUBCHEM_BOND_UDEF_STEREO_COUNT>  (1) 
0

>  <PUBCHEM_ISOTOPIC_ATOM_COUNT>  (1) 
0

>  <PUBCHEM_COMPONENT_COUNT>  (1) 
1

>  <PUBCHEM_CACTVS_TAUTO_COUNT>  (1) 
5

>  <PUBCHEM_CONFORMER_ID>  (1) 
0000C08A00000001

>  <PUBCHEM_MMFF94_ENERGY>  (1) 
29.4221

>  <PUBCHEM_FEATURE_SELFOVERLAP>  (1) 
40.637

>  <PUBCHEM_SHAPE_FINGERPRINT>  (1) 
10014705 185 18411700998003605584
10680689 15 17530965817688428982
11132069 177 16371012858295306271
11315181 36 17749384936470128276
12251169 10 15936418827101079030
12633257 1 16298397863533767356
13024252 1 14345788366522262319
13214271 11 18411702110252286422
14123260 362 18273220802756821880
15061688 2 18042683897621744573
16945 1 16055732258912908675
17780758 139 13190605154055238244
17870717 6 14405193880412359388
187816 3 16056874711159570789
19784866 240 10375860901011491841
20112054 13 18114185220358940078
20300324 65 15698000725955755416
20645476 183 17846487119680345367
20645477 56 18408044009117510624
20871999 31 15482671260390940336
21339142 149 17458345281400992843
21650355 55 14996293538653339461
23403322 49 11095887055807407324
23500284 214 18113337483750683440
27216 239 18040438819120459280
2748010 2 15695427941661229935
2838139 119 18122335788044525349
4028521 119 17918273138941911880
4175511 318 17775286062343263980
57265010 4 16588312713016162728
69474 34 16153433847943591709

>  <PUBCHEM_SHAPE_MULTIPOLES>  (1) 
301.7
9.23
1.68
1.49
18.75
0.05
-0.01
-5.49
0.04
-1.49
0
-1.23
0.11
0

>  <PUBCHEM_SHAPE_SELFOVERLAP>  (1) 
602.852

>  <PUBCHEM_SHAPE_VOLUME>  (1) 
175.9

>  <PUBCHEM_COORDINATE_TYPE>  (1) 
2
5
10

$$$$
