49296
     RDKit          3D

 17 17  0  0  0  0  0  0  0  0999 V2000
    0.5641   -0.2115   -2.4356 O   0  0  0  0  0  0  0  0  0  0  0  0
   -0.2872    0.2254    2.1616 O   0  0  0  0  0  0  0  0  0  0  0  0
    3.4170    2.1594    0.2654 O   0  0  0  0  0  0  0  0  0  0  0  0
    2.0395    0.8893   -1.0668 N   0  0  0  0  0  0  0  0  0  0  0  0
    1.6147    1.1071    1.2298 N   0  0  0  0  0  0  0  0  0  0  0  0
    0.3410   -0.5572   -0.0459 C   0  0  0  0  0  0  0  0  0  0  0  0
    1.0847   -1.8789    0.2172 C   0  0  0  0  0  0  0  0  0  0  0  0
   -1.1456   -0.8521   -0.2932 C   0  0  0  0  0  0  0  0  0  0  0  0
    0.9540    0.0582   -1.2999 C   0  0  0  0  0  0  0  0  0  0  0  0
    0.4895    0.2965    1.2095 C   0  0  0  0  0  0  0  0  0  0  0  0
    0.5515   -2.5423    1.4814 C   0  0  0  0  0  0  0  0  0  0  0  0
    0.9507   -2.8084   -0.9830 C   0  0  0  0  0  0  0  0  0  0  0  0
   -1.9067    0.4161   -0.5100 C   0  0  0  0  0  0  0  0  0  0  0  0
    2.4358    1.4225    0.1539 C   0  0  0  0  0  0  0  0  0  0  0  0
   -3.1852    0.6745   -0.1754 C   0  0  0  0  0  0  0  0  0  0  0  0
   -3.8974    1.9744   -0.4206 C   0  0  0  0  0  0  0  0  0  0  0  0
   -4.0204   -0.3729    0.5117 C   0  0  0  0  0  0  0  0  0  0  0  0
  1  9  2  0
  2 10  2  0
  3 14  2  0
  4  9  1  0
  4 14  1  0
  5 10  1  0
  5 14  1  0
  6  7  1  0
  6  8  1  0
  6  9  1  0
  6 10  1  0
  7 11  1  0
  7 12  1  0
  8 13  1  0
 13 15  2  3
 15 16  1  0
 15 17  1  0
M  END
>  <PUBCHEM_COMPOUND_CID>  (1) 
49296

>  <PUBCHEM_CONFORMER_RMSD>  (1) 
0.6

>  <PUBCHEM_CONFORMER_DIVERSEORDER>  (1) 
2
15
13
14
5
10
8
12
6
7
9
11
16
17
1
4
3

>  <PUBCHEM_MMFF94_PARTIAL_CHARGES>  (1) 
17
1 -0.57
10 0.57
13 -0.29
14 0.69
15 -0.28
16 0.14
17 0.14
2 -0.57
27 0.15
28 0.37
29 0.37
3 -0.57
4 -0.49
5 -0.49
6 0.12
8 0.14
9 0.57

>  <PUBCHEM_EFFECTIVE_ROTOR_COUNT>  (1) 
3.6

>  <PUBCHEM_PHARMACOPHORE_FEATURES>  (1) 
8
1 1 acceptor
1 2 acceptor
1 3 acceptor
1 4 donor
1 5 donor
3 15 16 17 hydrophobe
3 7 11 12 hydrophobe
6 4 5 6 9 10 14 rings

>  <PUBCHEM_HEAVY_ATOM_COUNT>  (1) 
17

>  <PUBCHEM_ATOM_DEF_STEREO_COUNT>  (1) 
0

>  <PUBCHEM_ATOM_UDEF_STEREO_COUNT>  (1) 
0

>  <PUBCHEM_BOND_DEF_STEREO_COUNT>  (1) 
0

>  <PUBCHEM_BOND_UDEF_STEREO_COUNT>  (1) 
0

>  <PUBCHEM_ISOTOPIC_ATOM_COUNT>  (1) 
0

>  <PUBCHEM_COMPONENT_COUNT>  (1) 
1

>  <PUBCHEM_CACTVS_TAUTO_COUNT>  (1) 
5

>  <PUBCHEM_CONFORMER_ID>  (1) 
0000C09000000002

>  <PUBCHEM_MMFF94_ENERGY>  (1) 
50.8052

>  <PUBCHEM_FEATURE_SELFOVERLAP>  (1) 
40.636

>  <PUBCHEM_SHAPE_FINGERPRINT>  (1) 
10922049 32 18336829796343217864
10948715 1 18337951298219555424
12138202 97 17914059956391764444
12423570 1 8636893819163797510
12491281 212 17970625405671875060
12725867 57 17485356781807716535
13132413 78 17694215573924018904
13464514 151 18270410373194169076
13571099 52 18340770437332494884
14178342 30 17385729076075302345
14817 1 15546006149581567950
15163728 17 18263668258229885308
15906896 17 17974284631919413722
16945 1 17126446521120487538
18186145 218 18059026067351234500
19765921 60 17988924517325785217
20473742 2 18261662671927083938
20820808 20 18202285818132109857
21524375 3 18337383967172586904
23382010 3 14835831962741995500
23419403 2 17552972568034425366
25 1 17417539115023051401
305870 269 18334287669445948177
353137 74 17704083884120374649
427121 178 18337401533963452219
430814 3 18270100431195040356
68419 9 17198212924933909742
7364860 26 18340485539287909335
81228 2 17330533853668403443

>  <PUBCHEM_SHAPE_MULTIPOLES>  (1) 
322.28
5.05
2.53
1.66
6.27
1.01
-0.09
-3.21
0.04
-1.79
0.19
-0.61
0.24
0.44

>  <PUBCHEM_SHAPE_SELFOVERLAP>  (1) 
660.604

>  <PUBCHEM_SHAPE_VOLUME>  (1) 
184.7

>  <PUBCHEM_COORDINATE_TYPE>  (1) 
2
5
10

$$$$
