49303
     RDKit          3D

 18 18  0  0  1  0  0  0  0  0999 V2000
   -0.0561    0.5542    2.0824 O   0  0  0  0  0  0  0  0  0  0  0  0
    0.2071   -1.1620   -2.2805 O   0  0  0  0  0  0  0  0  0  0  0  0
    3.3392   -2.2880    0.8784 O   0  0  0  0  0  0  0  0  0  0  0  0
    1.6942   -0.7877    1.4512 N   0  0  0  0  0  0  0  0  0  0  0  0
    1.8261   -1.6445   -0.7284 N   0  0  0  0  0  0  0  0  0  0  0  0
    0.2982    0.2253   -0.2938 C   0  0  0  0  0  0  0  0  0  0  0  0
   -1.2023    0.4881   -0.4877 C   0  0  0  0  0  0  0  0  0  0  0  0
    1.0932    1.4675   -0.7343 C   0  0  0  0  0  0  0  0  0  0  0  0
   -2.0414   -0.7062   -0.0273 C   0  0  0  0  0  0  0  0  0  0  0  0
   -3.5591   -0.4671   -0.1336 C   0  0  0  0  0  0  0  0  0  0  0  0
    0.5907    0.0101    1.1878 C   0  0  0  0  0  0  0  0  0  0  0  0
    0.7346   -0.9265   -1.1937 C   0  0  0  0  0  0  0  0  0  0  0  0
    0.8951    1.7218   -2.2258 C   0  0  0  0  0  0  0  0  0  0  0  0
    0.6608    2.6653    0.0664 C   0  0  0  0  0  0  0  0  0  0  0  0
   -3.9476    0.7698    0.6804 C   0  0  0  0  0  0  0  0  0  0  0  0
   -4.3750   -1.6716    0.3380 C   0  0  0  0  0  0  0  0  0  0  0  0
    2.3653   -1.6075    0.5519 C   0  0  0  0  0  0  0  0  0  0  0  0
    1.4770    3.3589    0.8684 C   0  0  0  0  0  0  0  0  0  0  0  0
  1 11  2  0
  2 12  2  0
  3 17  2  0
  4 11  1  0
  4 17  1  0
  5 12  1  0
  5 17  1  0
  6  7  1  0
  6  8  1  0
  6 11  1  0
  6 12  1  0
  7  9  1  0
  8 13  1  0
  8 14  1  0
  9 10  1  0
 10 15  1  0
 10 16  1  0
 14 18  2  0
M  END
>  <PUBCHEM_COMPOUND_CID>  (1) 
49303

>  <PUBCHEM_CONFORMER_RMSD>  (1) 
0.8

>  <PUBCHEM_CONFORMER_DIVERSEORDER>  (1) 
1
7
10
6
11
5
9
12
4
8
2
3

>  <PUBCHEM_MMFF94_PARTIAL_CHARGES>  (1) 
17
1 -0.57
11 0.57
12 0.57
14 -0.29
17 0.69
18 -0.3
2 -0.57
28 0.15
29 0.37
3 -0.57
30 0.37
37 0.15
38 0.15
4 -0.49
5 -0.49
6 0.12
8 0.14

>  <PUBCHEM_EFFECTIVE_ROTOR_COUNT>  (1) 
5.6

>  <PUBCHEM_PHARMACOPHORE_FEATURES>  (1) 
9
1 1 acceptor
1 13 hydrophobe
1 18 hydrophobe
1 2 acceptor
1 3 acceptor
1 4 donor
1 5 donor
3 10 15 16 hydrophobe
6 4 5 6 11 12 17 rings

>  <PUBCHEM_HEAVY_ATOM_COUNT>  (1) 
18

>  <PUBCHEM_ATOM_DEF_STEREO_COUNT>  (1) 
0

>  <PUBCHEM_ATOM_UDEF_STEREO_COUNT>  (1) 
1

>  <PUBCHEM_BOND_DEF_STEREO_COUNT>  (1) 
0

>  <PUBCHEM_BOND_UDEF_STEREO_COUNT>  (1) 
0

>  <PUBCHEM_ISOTOPIC_ATOM_COUNT>  (1) 
0

>  <PUBCHEM_COMPONENT_COUNT>  (1) 
1

>  <PUBCHEM_CACTVS_TAUTO_COUNT>  (1) 
5

>  <PUBCHEM_CONFORMER_ID>  (1) 
0000C09700000001

>  <PUBCHEM_MMFF94_ENERGY>  (1) 
50.4329

>  <PUBCHEM_FEATURE_SELFOVERLAP>  (1) 
45.712

>  <PUBCHEM_SHAPE_FINGERPRINT>  (1) 
11578080 2 16951944220450633036
12423570 1 13813417983347911732
12532896 13 17476358778078203028
12592029 89 18267305528741068040
13134695 92 18339347604956718893
14617773 55 17244442793688733670
14787075 74 18113054948286361578
14817 1 12652038901829145820
16945 1 18267003111392876492
17041 49 18339651036154152865
20559304 39 18343025531765780753
20600515 1 18119533132883510901
21524375 3 17767972295858759345
22112679 90 17911272479350833576
22344851 341 17910113847640393054
23419403 2 18117531012525320492
23557571 272 18122342372629731798
305870 269 18123465239836210041
394222 165 17985556786277170937
430814 3 17837760493438167697
5845 1 11717308620686672252
7364860 26 18338515360516674569
81228 2 17688044019346660996
9999458 23 18123467438959731596

>  <PUBCHEM_SHAPE_MULTIPOLES>  (1) 
342.86
5.21
2.89
1.77
8.18
1.31
0.49
-2.18
-1.29
-2.87
-0.45
-0.86
0.14
-0.42

>  <PUBCHEM_SHAPE_SELFOVERLAP>  (1) 
697.689

>  <PUBCHEM_SHAPE_VOLUME>  (1) 
197.2

>  <PUBCHEM_COORDINATE_TYPE>  (1) 
2
5
10

$$$$
