49318
     RDKit          3D

 18 18  0  0  0  0  0  0  0  0999 V2000
   -0.1019   -1.3754   -2.2366 O   0  0  0  0  0  0  0  0  0  0  0  0
    0.4068    0.7604    1.9143 O   0  0  0  0  0  0  0  0  0  0  0  0
    3.0877   -2.7769    0.7499 O   0  0  0  0  0  0  0  0  0  0  0  0
    1.5563   -2.0102   -0.7839 N   0  0  0  0  0  0  0  0  0  0  0  0
    1.8099   -0.9436    1.2899 N   0  0  0  0  0  0  0  0  0  0  0  0
    0.4455    0.1489   -0.4319 C   0  0  0  0  0  0  0  0  0  0  0  0
   -0.9946    0.6736   -0.5254 C   0  0  0  0  0  0  0  0  0  0  0  0
    1.4015    1.1700   -1.0743 C   0  0  0  0  0  0  0  0  0  0  0  0
   -1.9927   -0.3213    0.0666 C   0  0  0  0  0  0  0  0  0  0  0  0
    0.5701   -1.1440   -1.2317 C   0  0  0  0  0  0  0  0  0  0  0  0
    0.8475    0.0217    1.0341 C   0  0  0  0  0  0  0  0  0  0  0  0
   -3.4220    0.2197    0.0021 C   0  0  0  0  0  0  0  0  0  0  0  0
    1.4164    2.4771   -0.3330 C   0  0  0  0  0  0  0  0  0  0  0  0
   -4.4241   -0.7888    0.5633 C   0  0  0  0  0  0  0  0  0  0  0  0
    2.2241   -1.9569    0.4337 C   0  0  0  0  0  0  0  0  0  0  0  0
    2.4434    2.6426    0.7501 C   0  0  0  0  0  0  0  0  0  0  0  0
   -5.8495   -0.2683    0.4702 C   0  0  0  0  0  0  0  0  0  0  0  0
    0.5756    3.4716   -0.6572 C   0  0  0  0  0  0  0  0  0  0  0  0
  1 10  2  0
  2 11  2  0
  3 15  2  0
  4 10  1  0
  4 15  1  0
  5 11  1  0
  5 15  1  0
  6  7  1  0
  6  8  1  0
  6 10  1  0
  6 11  1  0
  7  9  1  0
  8 13  1  0
  9 12  1  0
 12 14  1  0
 13 16  1  0
 13 18  2  0
 14 17  1  0
M  END
>  <PUBCHEM_COMPOUND_CID>  (1) 
49318

>  <PUBCHEM_CONFORMER_RMSD>  (1) 
0.8

>  <PUBCHEM_CONFORMER_DIVERSEORDER>  (1) 
1
9
26
15
25
28
24
29
20
21
16
30
19
8
23
22
18
10
6
17
4
7
27
5
13
3
12
14
11
2

>  <PUBCHEM_MMFF94_PARTIAL_CHARGES>  (1) 
17
1 -0.57
10 0.57
11 0.57
13 -0.28
15 0.69
16 0.14
18 -0.3
2 -0.57
29 0.37
3 -0.57
30 0.37
37 0.15
38 0.15
4 -0.49
5 -0.49
6 0.12
8 0.14

>  <PUBCHEM_EFFECTIVE_ROTOR_COUNT>  (1) 
6.6

>  <PUBCHEM_PHARMACOPHORE_FEATURES>  (1) 
8
1 1 acceptor
1 17 hydrophobe
1 2 acceptor
1 3 acceptor
1 4 donor
1 5 donor
4 7 9 12 14 hydrophobe
6 4 5 6 10 11 15 rings

>  <PUBCHEM_HEAVY_ATOM_COUNT>  (1) 
18

>  <PUBCHEM_ATOM_DEF_STEREO_COUNT>  (1) 
0

>  <PUBCHEM_ATOM_UDEF_STEREO_COUNT>  (1) 
0

>  <PUBCHEM_BOND_DEF_STEREO_COUNT>  (1) 
0

>  <PUBCHEM_BOND_UDEF_STEREO_COUNT>  (1) 
0

>  <PUBCHEM_ISOTOPIC_ATOM_COUNT>  (1) 
0

>  <PUBCHEM_COMPONENT_COUNT>  (1) 
1

>  <PUBCHEM_CACTVS_TAUTO_COUNT>  (1) 
5

>  <PUBCHEM_CONFORMER_ID>  (1) 
0000C0A600000001

>  <PUBCHEM_MMFF94_ENERGY>  (1) 
41.6244

>  <PUBCHEM_FEATURE_SELFOVERLAP>  (1) 
40.637

>  <PUBCHEM_SHAPE_FINGERPRINT>  (1) 
10382601 240 18341339993119852981
10610426 29 17241606104944199694
11578080 2 16444727394802446108
12138202 97 9004762252117432658
12423570 1 12854369227886713316
12532896 13 17763749088786553428
12592029 89 18337676424744793952
12644460 14 18339653312291562891
13134695 92 18337377258634222085
13955234 65 18337398248503154251
14787075 74 17967819319212585282
14817 1 14512248753146627372
15906896 17 17186446179395534868
16945 1 18336816580765894764
1813 80 18198916807273223518
20600515 1 17831862348000007852
20645477 70 18260826029963099267
21041028 32 18337665304763293028
21524375 3 17982738776820134677
23419403 2 17896576441551908444
23557571 272 17693088566416858478
23558518 356 17260179420501474964
2748010 2 17481955988601698570
3060560 45 18200326527235132093
31174 14 18260827120557472325
394222 165 18128546040096982273
430814 3 18052531359487396548
5104073 3 18338531794069001523
54040823 5 18335715926450172527
7364860 26 18408605893866412017
81228 2 17405720181120967317
81539 233 18189902100526269469
9841814 1 18337405850484738131
9999458 23 18263934412962851052

>  <PUBCHEM_SHAPE_MULTIPOLES>  (1) 
342.86
6.49
3.21
1.45
15.18
1.13
0.17
-0.98
-2.04
-4.33
0.16
-0.55
-0.33
-0.19

>  <PUBCHEM_SHAPE_SELFOVERLAP>  (1) 
693.108

>  <PUBCHEM_SHAPE_VOLUME>  (1) 
197.7

>  <PUBCHEM_COORDINATE_TYPE>  (1) 
2
5
10

$$$$
