49323
     RDKit          3D

 16 16  0  0  0  0  0  0  0  0999 V2000
    0.5972   -1.8965   -1.8380 O   0  0  0  0  0  0  0  0  0  0  0  0
   -0.5424    0.6554    1.9355 O   0  0  0  0  0  0  0  0  0  0  0  0
    3.7749    0.5577    0.3839 O   0  0  0  0  0  0  0  0  0  0  0  0
    2.1630   -0.5914   -0.7855 N   0  0  0  0  0  0  0  0  0  0  0  0
    1.5938    0.6828    1.0999 N   0  0  0  0  0  0  0  0  0  0  0  0
   -0.2112   -0.1949   -0.3112 C   0  0  0  0  0  0  0  0  0  0  0  0
   -1.4511   -1.0738   -0.0912 C   0  0  0  0  0  0  0  0  0  0  0  0
   -0.5819    0.9884   -1.2231 C   0  0  0  0  0  0  0  0  0  0  0  0
    0.8618   -0.9996   -1.0377 C   0  0  0  0  0  0  0  0  0  0  0  0
    0.2398    0.3930    1.0222 C   0  0  0  0  0  0  0  0  0  0  0  0
   -1.1176   -2.2778    0.7777 C   0  0  0  0  0  0  0  0  0  0  0  0
   -1.5944    1.8988   -0.5873 C   0  0  0  0  0  0  0  0  0  0  0  0
   -2.3394   -3.1607    0.9753 C   0  0  0  0  0  0  0  0  0  0  0  0
    2.5908    0.2519    0.2329 C   0  0  0  0  0  0  0  0  0  0  0  0
   -1.0721    3.0602    0.2085 C   0  0  0  0  0  0  0  0  0  0  0  0
   -2.9111    1.7065   -0.7620 C   0  0  0  0  0  0  0  0  0  0  0  0
  1  9  2  0
  2 10  2  0
  3 14  2  0
  4  9  1  0
  4 14  1  0
  5 10  1  0
  5 14  1  0
  6  7  1  0
  6  8  1  0
  6  9  1  0
  6 10  1  0
  7 11  1  0
  8 12  1  0
 11 13  1  0
 12 15  1  0
 12 16  2  0
M  END
>  <PUBCHEM_COMPOUND_CID>  (1) 
49323

>  <PUBCHEM_CONFORMER_RMSD>  (1) 
0.6

>  <PUBCHEM_CONFORMER_DIVERSEORDER>  (1) 
1
3
12
16
6
11
9
15
10
13
2
14
8
4
7
5

>  <PUBCHEM_MMFF94_PARTIAL_CHARGES>  (1) 
17
1 -0.57
10 0.57
12 -0.28
14 0.69
15 0.14
16 -0.3
2 -0.57
23 0.37
24 0.37
3 -0.57
31 0.15
32 0.15
4 -0.49
5 -0.49
6 0.12
8 0.14
9 0.57

>  <PUBCHEM_EFFECTIVE_ROTOR_COUNT>  (1) 
4.6

>  <PUBCHEM_PHARMACOPHORE_FEATURES>  (1) 
7
1 1 acceptor
1 13 hydrophobe
1 2 acceptor
1 3 acceptor
1 4 donor
1 5 donor
6 4 5 6 9 10 14 rings

>  <PUBCHEM_HEAVY_ATOM_COUNT>  (1) 
16

>  <PUBCHEM_ATOM_DEF_STEREO_COUNT>  (1) 
0

>  <PUBCHEM_ATOM_UDEF_STEREO_COUNT>  (1) 
0

>  <PUBCHEM_BOND_DEF_STEREO_COUNT>  (1) 
0

>  <PUBCHEM_BOND_UDEF_STEREO_COUNT>  (1) 
0

>  <PUBCHEM_ISOTOPIC_ATOM_COUNT>  (1) 
0

>  <PUBCHEM_COMPONENT_COUNT>  (1) 
1

>  <PUBCHEM_CACTVS_TAUTO_COUNT>  (1) 
5

>  <PUBCHEM_CONFORMER_ID>  (1) 
0000C0AB00000001

>  <PUBCHEM_MMFF94_ENERGY>  (1) 
42.3024

>  <PUBCHEM_FEATURE_SELFOVERLAP>  (1) 
35.563

>  <PUBCHEM_SHAPE_FINGERPRINT>  (1) 
12138202 97 18334856078255278164
12423570 1 14457085365686036395
14817 1 13562113931683165473
15219459 28 18341049635908044895
15852999 172 18269266872706299006
16945 1 18334572468700881228
18534176 82 18410569591563541708
19765921 60 17911788090116787225
21524375 3 18053641612992053124
21947302 44 18054219938980862420
22344851 341 17621872094025498585
23402539 116 18265314175559505021
23419403 2 17843956181563070713
23493267 7 18410568466672396538
23557571 272 18337678619647168484
25 1 17914330174059245236
2748010 2 18058443365075307872
305870 269 17614553748883946660
3250762 1 18268723726842266174
5845 1 15374559232758609147
7364860 26 17181642984408879725
81228 2 18262257580668903163

>  <PUBCHEM_SHAPE_MULTIPOLES>  (1) 
301.7
3.64
3.2
1.46
2.44
0.93
0.01
-0.55
-0.16
-3.31
-0.44
0.1
0.25
1.05

>  <PUBCHEM_SHAPE_SELFOVERLAP>  (1) 
617.671

>  <PUBCHEM_SHAPE_VOLUME>  (1) 
171.9

>  <PUBCHEM_COORDINATE_TYPE>  (1) 
2
5
10

$$$$
