49321
     RDKit          3D

 19 20  0  0  0  0  0  0  0  0999 V2000
   -0.4046    0.0563   -2.4342 O   0  0  0  0  0  0  0  0  0  0  0  0
   -0.4763    0.3584    2.3494 O   0  0  0  0  0  0  0  0  0  0  0  0
   -2.3475   -3.1944    0.1437 O   0  0  0  0  0  0  0  0  0  0  0  0
   -1.3337   -1.5673   -1.1177 N   0  0  0  0  0  0  0  0  0  0  0  0
   -1.3662   -1.4211    1.2206 N   0  0  0  0  0  0  0  0  0  0  0  0
   -0.0964    0.2857   -0.0421 C   0  0  0  0  0  0  0  0  0  0  0  0
   -0.4587    1.7741   -0.1411 C   0  0  0  0  0  0  0  0  0  0  0  0
    1.4005    0.1536   -0.0119 C   0  0  0  0  0  0  0  0  0  0  0  0
   -0.6249   -0.3947   -1.3082 C   0  0  0  0  0  0  0  0  0  0  0  0
   -0.6631   -0.2316    1.2831 C   0  0  0  0  0  0  0  0  0  0  0  0
   -1.9453    2.0030   -0.1146 C   0  0  0  0  0  0  0  0  0  0  0  0
    1.9778   -1.1100    0.0010 C   0  0  0  0  0  0  0  0  0  0  0  0
    2.1896    1.2968    0.0028 C   0  0  0  0  0  0  0  0  0  0  0  0
   -1.7182   -2.1363    0.0864 C   0  0  0  0  0  0  0  0  0  0  0  0
   -2.5812    2.2350    1.2259 C   0  0  0  0  0  0  0  0  0  0  0  0
    3.3672   -1.2322    0.0288 C   0  0  0  0  0  0  0  0  0  0  0  0
    3.5789    1.1744    0.0309 C   0  0  0  0  0  0  0  0  0  0  0  0
   -2.6657    2.0402   -1.2463 C   0  0  0  0  0  0  0  0  0  0  0  0
    4.1679   -0.0900    0.0435 C   0  0  0  0  0  0  0  0  0  0  0  0
  1  9  2  0
  2 10  2  0
  3 14  2  0
  4  9  1  0
  4 14  1  0
  5 10  1  0
  5 14  1  0
  6  7  1  0
  6  8  1  0
  6  9  1  0
  6 10  1  0
  7 11  1  0
  8 12  2  0
  8 13  1  0
 11 15  1  0
 11 18  2  0
 12 16  1  0
 13 17  2  0
 16 19  2  0
 17 19  1  0
M  END
>  <PUBCHEM_COMPOUND_CID>  (1) 
49321

>  <PUBCHEM_CONFORMER_RMSD>  (1) 
0.6

>  <PUBCHEM_CONFORMER_DIVERSEORDER>  (1) 
1
4
3
6
2
5

>  <PUBCHEM_MMFF94_PARTIAL_CHARGES>  (1) 
28
1 -0.57
10 0.57
11 -0.28
12 -0.15
13 -0.15
14 0.69
15 0.14
16 -0.15
17 -0.15
18 -0.3
19 -0.15
2 -0.57
22 0.37
23 0.37
24 0.15
25 0.15
29 0.15
3 -0.57
30 0.15
31 0.15
32 0.15
33 0.15
4 -0.49
5 -0.49
6 0.27
7 0.14
8 -0.14
9 0.57

>  <PUBCHEM_EFFECTIVE_ROTOR_COUNT>  (1) 
3.6

>  <PUBCHEM_PHARMACOPHORE_FEATURES>  (1) 
7
1 1 acceptor
1 2 acceptor
1 3 acceptor
1 4 donor
1 5 donor
6 4 5 6 9 10 14 rings
6 8 12 13 16 17 19 rings

>  <PUBCHEM_HEAVY_ATOM_COUNT>  (1) 
19

>  <PUBCHEM_ATOM_DEF_STEREO_COUNT>  (1) 
0

>  <PUBCHEM_ATOM_UDEF_STEREO_COUNT>  (1) 
0

>  <PUBCHEM_BOND_DEF_STEREO_COUNT>  (1) 
0

>  <PUBCHEM_BOND_UDEF_STEREO_COUNT>  (1) 
0

>  <PUBCHEM_ISOTOPIC_ATOM_COUNT>  (1) 
0

>  <PUBCHEM_COMPONENT_COUNT>  (1) 
1

>  <PUBCHEM_CACTVS_TAUTO_COUNT>  (1) 
5

>  <PUBCHEM_CONFORMER_ID>  (1) 
0000C0A900000001

>  <PUBCHEM_MMFF94_ENERGY>  (1) 
62.666

>  <PUBCHEM_FEATURE_SELFOVERLAP>  (1) 
35.562

>  <PUBCHEM_SHAPE_FINGERPRINT>  (1) 
10863032 1 18339921519750325180
10922049 32 18193842544036474381
10948715 1 18194118512838783309
11578080 2 17272833558191589129
12138202 97 18335137544721246916
12491281 212 18271803458732182004
12592029 89 17979072678629859649
13004483 165 18267298914233384939
13024252 1 17022905652850645193
13134695 92 17554044725600652455
13140716 1 18412821387683964944
13464514 151 16891451053364292533
14178342 30 18336250294108077554
15309172 13 18121502353787549217
15906896 17 18201435848599515967
16945 1 17906732505597875949
18186145 218 18053945052415697676
19765921 60 17414155707581190113
19930381 70 17184468716207778994
21296965 67 18121215647609146283
21501502 16 18333453166433653904
23402539 116 18343300388509118111
23419403 2 17105056965484750052
23559900 14 18270396080703460002
4340502 62 17841734928137543697
633830 44 17840870668188562765
68419 9 17607208087818555353
69090 78 18335140839019360713
74978 22 18410854318305203516
81228 2 18187649171009441937
8272917 22 17544750136893747053

>  <PUBCHEM_SHAPE_MULTIPOLES>  (1) 
363.44
5.17
2.71
1.54
5.17
1.3
0.04
-1.35
-0.07
-2.56
-0.1
-1.01
-0.1
0.05

>  <PUBCHEM_SHAPE_SELFOVERLAP>  (1) 
783.596

>  <PUBCHEM_SHAPE_VOLUME>  (1) 
197.9

>  <PUBCHEM_COORDINATE_TYPE>  (1) 
2
5
10

$$$$
