49348
     RDKit          3D

 23 24  0  0  1  0  0  0  0  0999 V2000
   -1.8716   -1.7830    0.2911 O   0  0  0  0  0  0  0  0  0  0  0  0
   -0.7645   -1.4644    2.2841 O   0  0  0  0  0  0  0  0  0  0  0  0
   -3.4579    0.3869   -0.6477 N   0  0  0  0  0  0  0  0  0  0  0  0
   -2.5277    2.5393    0.0654 C   0  0  0  0  0  0  0  0  0  0  0  0
   -3.5856    1.4676    0.3228 C   0  0  0  0  0  0  0  0  0  0  0  0
   -1.1156    1.9589    0.1694 C   0  0  0  0  0  0  0  0  0  0  0  0
   -0.0554    3.0228   -0.1232 C   0  0  0  0  0  0  0  0  0  0  0  0
   -4.0356   -0.8506   -0.1203 C   0  0  0  0  0  0  0  0  0  0  0  0
    1.3385    2.4530   -0.0581 C   0  0  0  0  0  0  0  0  0  0  0  0
   -4.1026    0.7497   -1.9109 C   0  0  0  0  0  0  0  0  0  0  0  0
   -3.1124   -1.4761    0.9131 C   0  0  0  0  0  0  0  0  0  0  0  0
    2.0383    2.4577    1.1487 C   0  0  0  0  0  0  0  0  0  0  0  0
    1.9288    1.9205   -1.2044 C   0  0  0  0  0  0  0  0  0  0  0  0
    3.3282    1.9302    1.2092 C   0  0  0  0  0  0  0  0  0  0  0  0
    3.2187    1.3929   -1.1437 C   0  0  0  0  0  0  0  0  0  0  0  0
    3.9183    1.3978    0.0630 C   0  0  0  0  0  0  0  0  0  0  0  0
   -0.7728   -1.7399    1.0944 C   0  0  0  0  0  0  0  0  0  0  0  0
    0.4532   -2.0769    0.3278 C   0  0  0  0  0  0  0  0  0  0  0  0
    1.6934   -2.0892    0.9662 C   0  0  0  0  0  0  0  0  0  0  0  0
    0.3649   -2.3818   -1.0305 C   0  0  0  0  0  0  0  0  0  0  0  0
    2.8454   -2.4060    0.2462 C   0  0  0  0  0  0  0  0  0  0  0  0
    1.5170   -2.6988   -1.7504 C   0  0  0  0  0  0  0  0  0  0  0  0
    2.7571   -2.7109   -1.1119 C   0  0  0  0  0  0  0  0  0  0  0  0
  1 11  1  0
  1 17  1  0
  2 17  2  0
  3  5  1  0
  3  8  1  0
  3 10  1  0
  4  5  1  0
  4  6  1  0
  6  7  1  0
  7  9  1  0
  8 11  1  0
  9 12  2  0
  9 13  1  0
 12 14  1  0
 13 15  2  0
 14 16  2  0
 15 16  1  0
 17 18  1  0
 18 19  2  0
 18 20  1  0
 19 21  1  0
 20 22  2  0
 21 23  2  0
 22 23  1  0
M  END
>  <PUBCHEM_COMPOUND_CID>  (1) 
49348

>  <PUBCHEM_CONFORMER_RMSD>  (1) 
1

>  <PUBCHEM_CONFORMER_DIVERSEORDER>  (1) 
1
32
141
102
188
54
303
76
163
71
215
117
219
4
98
213
17
223
212
44
200
90
294
37
312
258
142
314
68
2
94
135
148
131
111
305
10
289
55
70
95
292
136
41
140
290
143
67
278
35
182
260
146
155
97
154
240
251
214
242
126
132
307
297
127
165
162
277
236
124
228
221
153
18
299
311
293
115
281
268
137
104
42
178
3
210
267
198
283
288
47
185
139
51
36
161
147
279
177
222
243
40
287
100
306
189
252
184
31
282
61
248
271
173
216
56
246
255
86
128
107
13
257
275
202
174
119
256
302
259
232
204
231
218
138
73
235
38
123
84
193
180
72
272
226
190
291
64
164
159
196
27
66
16
264
113
33
19
249
220
300
156
22
28
284
106
125
309
45
199
295
266
26
105
245
93
152
296
57
168
157
79
262
78
224
229
46
194
205
167
134
238
145
14
96
276
99
58
310
263
170
160
286
144
53
30
48
176
110
60
108
254
250
43
39
59
83
23
158
208
91
8
247
175
285
21
15
20
62
85
237
171
207
52
74
241
7
120
244
201
87
75
301
195
101
63
206
313
298
265
77
150
304
109
315
169
166
122
121
203
239
103
89
11
25
114
253
88
209
179
9
116
50
80
280
82
92
118
6
274
129
151
230
49
112
69
181
187
261
65
197
233
270
133
130
191
12
34
192
149
29
81
234
24
183
308
211
217
5
269
273
172
227
186
225

>  <PUBCHEM_MMFF94_PARTIAL_CHARGES>  (1) 
31
1 -0.43
10 0.27
11 0.28
12 -0.15
13 -0.15
14 -0.15
15 -0.15
16 -0.15
17 0.63
18 0.09
19 -0.15
2 -0.57
20 -0.15
21 -0.15
22 -0.15
23 -0.15
3 -0.81
39 0.15
40 0.15
41 0.15
42 0.15
43 0.15
44 0.15
45 0.15
46 0.15
47 0.15
48 0.15
5 0.27
7 0.14
8 0.27
9 -0.14

>  <PUBCHEM_EFFECTIVE_ROTOR_COUNT>  (1) 
10

>  <PUBCHEM_PHARMACOPHORE_FEATURES>  (1) 
4
1 2 acceptor
1 3 cation
6 18 19 20 21 22 23 rings
6 9 12 13 14 15 16 rings

>  <PUBCHEM_HEAVY_ATOM_COUNT>  (1) 
23

>  <PUBCHEM_ATOM_DEF_STEREO_COUNT>  (1) 
0

>  <PUBCHEM_ATOM_UDEF_STEREO_COUNT>  (1) 
0

>  <PUBCHEM_BOND_DEF_STEREO_COUNT>  (1) 
0

>  <PUBCHEM_BOND_UDEF_STEREO_COUNT>  (1) 
0

>  <PUBCHEM_ISOTOPIC_ATOM_COUNT>  (1) 
0

>  <PUBCHEM_COMPONENT_COUNT>  (1) 
1

>  <PUBCHEM_CACTVS_TAUTO_COUNT>  (1) 
1

>  <PUBCHEM_CONFORMER_ID>  (1) 
0000C0C400000001

>  <PUBCHEM_MMFF94_ENERGY>  (1) 
50.7755

>  <PUBCHEM_FEATURE_SELFOVERLAP>  (1) 
20.297

>  <PUBCHEM_SHAPE_FINGERPRINT>  (1) 
10759866 29 17533785063954407636
1100329 8 17907019473996293201
11221954 11 18335424573111919827
12156800 1 16476780572428608658
12422481 6 18194375872069642754
12596599 1 17626668197978923912
13122387 1 17617943530241794837
13402501 40 18336552710617459268
14114211 80 17546771429621702741
14251764 3 17986961936578829780
15006816 218 18410576231577810465
17093844 170 18408882949554325324
17492 54 17683268875281942532
19930381 70 18196936793290410527
20567600 299 18201434744745597432
20691752 17 17530971233098811841
20905425 154 18411427184863390300
21141583 151 17691974756352356518
23566358 2 18407754833691673869
238 59 18342172293082696588
238918 7 18342452699187439914
3298306 158 18336536235618894789
35225 105 17975984480979621509
59755656 215 18263359343270875511
6287921 2 17916013573531852247

>  <PUBCHEM_SHAPE_MULTIPOLES>  (1) 
456.61
7.07
4.67
1.59
4.33
0.1
-0.07
-1.62
-1.22
-2.73
-0.16
-0.01
0.54
1.14

>  <PUBCHEM_SHAPE_SELFOVERLAP>  (1) 
941.525

>  <PUBCHEM_SHAPE_VOLUME>  (1) 
262

>  <PUBCHEM_COORDINATE_TYPE>  (1) 
2
5
10

$$$$
