4935
     RDKit          3D

 21 21  0  0  0  0  0  0  0  0999 V2000
    1.5215    0.4055   -0.1367 O   0  0  0  0  0  0  0  0  0  0  0  0
   -4.6304   -0.2906    0.7613 O   0  0  0  0  0  0  0  0  0  0  0  0
    0.9373    2.6183   -0.3843 O   0  0  0  0  0  0  0  0  0  0  0  0
    5.1241   -0.2737   -0.5186 N   0  0  0  0  0  0  0  0  0  0  0  0
   -2.5397   -2.1740    0.7640 N   0  0  0  0  0  0  0  0  0  0  0  0
    3.7087   -0.5524   -0.2782 C   0  0  0  0  0  0  0  0  0  0  0  0
    5.7492    0.2730    0.6852 C   0  0  0  0  0  0  0  0  0  0  0  0
    5.8180   -1.4870   -0.9490 C   0  0  0  0  0  0  0  0  0  0  0  0
    2.8887    0.7252   -0.3591 C   0  0  0  0  0  0  0  0  0  0  0  0
    7.2057    0.6259    0.4355 C   0  0  0  0  0  0  0  0  0  0  0  0
    5.7767   -2.5552    0.1306 C   0  0  0  0  0  0  0  0  0  0  0  0
   -0.7396    0.9856    0.0708 C   0  0  0  0  0  0  0  0  0  0  0  0
    0.6487    1.4499   -0.1768 C   0  0  0  0  0  0  0  0  0  0  0  0
   -3.3487    0.1144    0.5359 C   0  0  0  0  0  0  0  0  0  0  0  0
   -2.2974   -0.8024    0.5330 C   0  0  0  0  0  0  0  0  0  0  0  0
   -0.9929   -0.3668    0.3003 C   0  0  0  0  0  0  0  0  0  0  0  0
   -1.7910    1.9024    0.0738 C   0  0  0  0  0  0  0  0  0  0  0  0
   -5.5797   -0.0405   -0.2729 C   0  0  0  0  0  0  0  0  0  0  0  0
   -3.0955    1.4669    0.3062 C   0  0  0  0  0  0  0  0  0  0  0  0
   -6.6606   -1.1091   -0.2174 C   0  0  0  0  0  0  0  0  0  0  0  0
   -7.7031   -0.9151   -1.3038 C   0  0  0  0  0  0  0  0  0  0  0  0
  1  9  1  0
  1 13  1  0
  2 14  1  0
  2 18  1  0
  3 13  2  0
  4  6  1  0
  4  7  1  0
  4  8  1  0
  5 15  1  0
  6  9  1  0
  7 10  1  0
  8 11  1  0
 12 13  1  0
 12 16  2  0
 12 17  1  0
 14 15  2  0
 14 19  1  0
 15 16  1  0
 17 19  2  0
 18 20  1  0
 20 21  1  0
M  END
>  <PUBCHEM_COMPOUND_CID>  (1) 
4935

>  <PUBCHEM_CONFORMER_RMSD>  (1) 
1

>  <PUBCHEM_CONFORMER_DIVERSEORDER>  (1) 
2
49
50
18
61
8
59
45
22
53
56
17
57
20
43
10
34
29
39
31
52
13
37
28
32
16
14
47
38
54
26
7
58
48
1
41
21
9
11
27
6
60
30
25
24
3
42
4
15
36
33
12
23
35
19
5
46
55
40
51
44

>  <PUBCHEM_MMFF94_PARTIAL_CHARGES>  (1) 
22
1 -0.43
12 0.09
13 0.63
14 0.08
15 0.1
16 -0.15
17 -0.15
18 0.28
19 -0.15
2 -0.36
3 -0.57
36 0.15
37 0.15
4 -0.81
40 0.15
46 0.4
47 0.4
5 -0.9
6 0.27
7 0.27
8 0.27
9 0.28

>  <PUBCHEM_EFFECTIVE_ROTOR_COUNT>  (1) 
10

>  <PUBCHEM_PHARMACOPHORE_FEATURES>  (1) 
7
1 2 acceptor
1 21 hydrophobe
1 3 acceptor
1 4 cation
1 5 cation
1 5 donor
6 12 14 15 16 17 19 rings

>  <PUBCHEM_HEAVY_ATOM_COUNT>  (1) 
21

>  <PUBCHEM_ATOM_DEF_STEREO_COUNT>  (1) 
0

>  <PUBCHEM_ATOM_UDEF_STEREO_COUNT>  (1) 
0

>  <PUBCHEM_BOND_DEF_STEREO_COUNT>  (1) 
0

>  <PUBCHEM_BOND_UDEF_STEREO_COUNT>  (1) 
0

>  <PUBCHEM_ISOTOPIC_ATOM_COUNT>  (1) 
0

>  <PUBCHEM_COMPONENT_COUNT>  (1) 
1

>  <PUBCHEM_CACTVS_TAUTO_COUNT>  (1) 
1

>  <PUBCHEM_CONFORMER_ID>  (1) 
0000134700000002

>  <PUBCHEM_MMFF94_ENERGY>  (1) 
60.0435

>  <PUBCHEM_FEATURE_SELFOVERLAP>  (1) 
35.521

>  <PUBCHEM_SHAPE_FINGERPRINT>  (1) 
106641 1 16558745754212445944
12516196 113 18273215300808893736
12555020 224 18334858346789593319
12596602 18 17274827921949911274
12670543 26 18186235131080326773
12838862 33 18261657255825552714
13177829 20 16271923852244886217
13288520 33 18411141320783758173
13533116 47 18272651285376671984
13668630 136 18410011053032390783
13685833 64 18343866618999817562
13862211 1 18412266125336569471
14251752 14 16805316700039718007
14251764 18 18130792273548622904
14933364 13 9223228551056920946
15048467 5 11530476736478975071
15183329 4 16226046665146109766
15690457 1 17846493760216853527
15706992 2 12901828256511080343
1768 124 17918275341949334214
17834072 8 17894628175951756663
18006028 8 18412544327216235417
1813 80 17385450899718079348
20526848 3 7925912591053077783
21095086 128 16845861191973497260
21130935 74 18060141994465627306
21267235 1 18336276681711910643
22079108 93 14764624209761773550
2215653 11 18260831505297244011
22224240 67 17489585684460043014
23402539 116 18343303657016452445
23559900 14 18337107985733653585
3004659 81 17894919525200705868
3014063 24 18202281394563936007
335352 9 18335139821845035741
3383291 50 18334300902763168115
34797466 226 16988569030851570788
4325135 7 18261116296932998604
4340502 62 14476965579408709252
5104073 3 18200030621980521368
559249 180 18189336779581770656
5758199 1 9223232957988869973
59682541 35 18200869678175036040
59682541 52 14490466440379991554
59755656 215 18187363216387440923
6138700 20 18408605838538466631

>  <PUBCHEM_SHAPE_MULTIPOLES>  (1) 
404.6
20.07
2.14
0.88
2.09
0.1
0.07
10.12
3.05
1.06
0.05
-0.35
0.18
0.05

>  <PUBCHEM_SHAPE_SELFOVERLAP>  (1) 
808.92

>  <PUBCHEM_SHAPE_VOLUME>  (1) 
240.5

>  <PUBCHEM_COORDINATE_TYPE>  (1) 
2
5
10

$$$$
