49375
     RDKit          3D

 21 22  0  0  0  0  0  0  0  0999 V2000
    2.1454   -0.6087   -2.2677 O   0  0  0  0  0  0  0  0  0  0  0  0
    1.0659   -0.1077    2.2748 O   0  0  0  0  0  0  0  0  0  0  0  0
    2.5153    3.4725   -0.2027 O   0  0  0  0  0  0  0  0  0  0  0  0
    2.2347    1.4497   -1.2588 N   0  0  0  0  0  0  0  0  0  0  0  0
    1.6961    1.6998    1.0105 N   0  0  0  0  0  0  0  0  0  0  0  0
    1.0157   -0.3597   -0.1365 C   0  0  0  0  0  0  0  0  0  0  0  0
    1.2346   -1.8639    0.0814 C   0  0  0  0  0  0  0  0  0  0  0  0
   -0.4554   -0.1091   -0.5135 C   0  0  0  0  0  0  0  0  0  0  0  0
    2.7053   -2.2310    0.3121 C   0  0  0  0  0  0  0  0  0  0  0  0
    1.8650    0.1141   -1.3117 C   0  0  0  0  0  0  0  0  0  0  0  0
    1.2760    0.3874    1.1678 C   0  0  0  0  0  0  0  0  0  0  0  0
   -1.3806   -0.5126    0.6262 C   0  0  0  0  0  0  0  0  0  0  0  0
    3.6068   -1.8028   -0.8466 C   0  0  0  0  0  0  0  0  0  0  0  0
    3.1918   -1.5855    1.6118 C   0  0  0  0  0  0  0  0  0  0  0  0
   -2.8231   -0.2658    0.2656 C   0  0  0  0  0  0  0  0  0  0  0  0
    2.1572    2.2943   -0.1579 C   0  0  0  0  0  0  0  0  0  0  0  0
   -3.3989    0.9613    0.5598 C   0  0  0  0  0  0  0  0  0  0  0  0
   -3.5523   -1.2696   -0.3547 C   0  0  0  0  0  0  0  0  0  0  0  0
   -4.7339    1.1898    0.2262 C   0  0  0  0  0  0  0  0  0  0  0  0
   -4.8873   -1.0411   -0.6882 C   0  0  0  0  0  0  0  0  0  0  0  0
   -5.4782    0.1887   -0.3979 C   0  0  0  0  0  0  0  0  0  0  0  0
  1 10  2  0
  2 11  2  0
  3 16  2  0
  4 10  1  0
  4 16  1  0
  5 11  1  0
  5 16  1  0
  6  7  1  0
  6  8  1  0
  6 10  1  0
  6 11  1  0
  7  9  1  0
  8 12  1  0
  9 13  1  0
  9 14  1  0
 12 15  1  0
 15 17  2  0
 15 18  1  0
 17 19  1  0
 18 20  2  0
 19 21  2  0
 20 21  1  0
M  END
>  <PUBCHEM_COMPOUND_CID>  (1) 
49375

>  <PUBCHEM_CONFORMER_RMSD>  (1) 
0.8

>  <PUBCHEM_CONFORMER_DIVERSEORDER>  (1) 
1
2

>  <PUBCHEM_MMFF94_PARTIAL_CHARGES>  (1) 
23
1 -0.57
10 0.57
11 0.57
12 0.14
15 -0.14
16 0.69
17 -0.15
18 -0.15
19 -0.15
2 -0.57
20 -0.15
21 -0.15
3 -0.57
35 0.37
36 0.37
37 0.15
38 0.15
39 0.15
4 -0.49
40 0.15
41 0.15
5 -0.49
6 0.12

>  <PUBCHEM_EFFECTIVE_ROTOR_COUNT>  (1) 
5.6

>  <PUBCHEM_PHARMACOPHORE_FEATURES>  (1) 
8
1 1 acceptor
1 2 acceptor
1 3 acceptor
1 4 donor
1 5 donor
3 9 13 14 hydrophobe
6 15 17 18 19 20 21 rings
6 4 5 6 10 11 16 rings

>  <PUBCHEM_HEAVY_ATOM_COUNT>  (1) 
21

>  <PUBCHEM_ATOM_DEF_STEREO_COUNT>  (1) 
0

>  <PUBCHEM_ATOM_UDEF_STEREO_COUNT>  (1) 
0

>  <PUBCHEM_BOND_DEF_STEREO_COUNT>  (1) 
0

>  <PUBCHEM_BOND_UDEF_STEREO_COUNT>  (1) 
0

>  <PUBCHEM_ISOTOPIC_ATOM_COUNT>  (1) 
0

>  <PUBCHEM_COMPONENT_COUNT>  (1) 
1

>  <PUBCHEM_CACTVS_TAUTO_COUNT>  (1) 
5

>  <PUBCHEM_CONFORMER_ID>  (1) 
0000C0DF00000001

>  <PUBCHEM_MMFF94_ENERGY>  (1) 
88.074

>  <PUBCHEM_FEATURE_SELFOVERLAP>  (1) 
40.636

>  <PUBCHEM_SHAPE_FINGERPRINT>  (1) 
10498660 4 18339081596690153301
11405975 8 18412546492691733451
12616999 72 17346606321643972261
13134695 92 18187078404384372634
13224815 77 18410014373131501931
13464514 151 18337122266657999116
14289901 80 18341890853183239947
14863182 85 16271932584114022334
15163728 17 17754476851505915172
16945 1 16951430753364015314
17492 89 18411698829167226463
1813 80 18264202513822903626
18186145 218 18342740694088010151
19078846 21 18198911318415451025
20369508 70 18335702719383422462
20645477 70 18272375291099822063
21452121 103 18336258032995981992
21503847 285 18186519869852575433
21524375 3 17912084155366544360
2255824 54 18410573985183541387
23419403 2 17605805115967375270
23557571 272 16987716792916576401
23559900 14 18273209786118234859
312423 11 18201166511675215459
474 4 17970070160926953317
5104073 3 18335144202796087275
5281201 14 18413110559109850269
5895379 119 17916033356141064793
633830 44 18261104167771125179
67856867 119 18340195392977930377
7364860 26 18408885152729597224
9971528 1 18341608153613563098
9981440 41 17975972390583587593

>  <PUBCHEM_SHAPE_MULTIPOLES>  (1) 
404.6
9.13
2.51
1.5
14.22
1.64
-0.07
-1.28
1.04
-2.99
0.06
-1.43
-0.15
-0.65

>  <PUBCHEM_SHAPE_SELFOVERLAP>  (1) 
860.367

>  <PUBCHEM_SHAPE_VOLUME>  (1) 
221.8

>  <PUBCHEM_COORDINATE_TYPE>  (1) 
2
5
10

$$$$
