49381
     RDKit          3D

 23 26  0  0  0  0  0  0  0  0999 V2000
    4.7144   -2.6488   -1.2101 F   0  0  0  0  0  0  0  0  0  0  0  0
   -1.7752   -0.7311    0.4478 N   0  0  0  0  0  0  0  0  0  0  0  0
   -4.5482   -1.3234    0.1597 N   0  0  0  0  0  0  0  0  0  0  0  0
    0.4782   -1.1898    0.4204 N   0  0  0  0  0  0  0  0  0  0  0  0
   -2.2032   -2.1032    0.1781 C   0  0  0  0  0  0  0  0  0  0  0  0
   -2.7726    0.1078    1.1112 C   0  0  0  0  0  0  0  0  0  0  0  0
   -3.5370   -2.1006   -0.5714 C   0  0  0  0  0  0  0  0  0  0  0  0
   -4.0939    0.0628    0.3414 C   0  0  0  0  0  0  0  0  0  0  0  0
   -0.4874   -0.3206    0.2611 C   0  0  0  0  0  0  0  0  0  0  0  0
   -0.2993    1.1176   -0.1085 C   0  0  0  0  0  0  0  0  0  0  0  0
    0.7043    1.8964    0.4910 C   0  0  0  0  0  0  0  0  0  0  0  0
   -5.8294   -1.3565   -0.5441 C   0  0  0  0  0  0  0  0  0  0  0  0
    1.6792    1.2866    1.4619 C   0  0  0  0  0  0  0  0  0  0  0  0
    2.4873    0.2179    0.7757 C   0  0  0  0  0  0  0  0  0  0  0  0
    1.8463   -0.9181    0.2484 C   0  0  0  0  0  0  0  0  0  0  0  0
   -1.1746    1.6960   -1.0384 C   0  0  0  0  0  0  0  0  0  0  0  0
    0.8133    3.2517    0.1461 C   0  0  0  0  0  0  0  0  0  0  0  0
    3.8724    0.3770    0.6156 C   0  0  0  0  0  0  0  0  0  0  0  0
   -1.0521    3.0445   -1.3717 C   0  0  0  0  0  0  0  0  0  0  0  0
    2.6198   -1.8829   -0.4133 C   0  0  0  0  0  0  0  0  0  0  0  0
   -0.0614    3.8222   -0.7785 C   0  0  0  0  0  0  0  0  0  0  0  0
    4.6227   -0.5877   -0.0538 C   0  0  0  0  0  0  0  0  0  0  0  0
    3.9964   -1.7179   -0.5685 C   0  0  0  0  0  0  0  0  0  0  0  0
  1 23  1  0
  2  5  1  0
  2  6  1  0
  2  9  1  0
  3  7  1  0
  3  8  1  0
  3 12  1  0
  4  9  2  0
  4 15  1  0
  5  7  1  0
  6  8  1  0
  9 10  1  0
 10 11  2  0
 10 16  1  0
 11 13  1  0
 11 17  1  0
 13 14  1  0
 14 15  2  0
 14 18  1  0
 15 20  1  0
 16 19  2  0
 17 21  2  0
 18 22  2  0
 19 21  1  0
 20 23  2  0
 22 23  1  0
M  END
>  <PUBCHEM_COMPOUND_CID>  (1) 
49381

>  <PUBCHEM_CONFORMER_RMSD>  (1) 
0.6

>  <PUBCHEM_CONFORMER_DIVERSEORDER>  (1) 
1
7
8
2
5
3
4
6

>  <PUBCHEM_MMFF94_PARTIAL_CHARGES>  (1) 
30
1 -0.19
10 0.09
11 -0.14
12 0.27
13 0.29
14 -0.14
15 0.18
16 -0.15
17 -0.15
18 -0.15
19 -0.15
2 -0.79
20 -0.15
21 -0.15
22 -0.15
23 0.19
3 -0.81
37 0.15
38 0.15
39 0.15
4 -0.63
40 0.15
41 0.15
42 0.15
43 0.15
5 0.37
6 0.37
7 0.27
8 0.27
9 0.41

>  <PUBCHEM_EFFECTIVE_ROTOR_COUNT>  (1) 
2.4

>  <PUBCHEM_PHARMACOPHORE_FEATURES>  (1) 
6
1 3 cation
3 2 4 9 cation
6 10 11 16 17 19 21 rings
6 14 15 18 20 22 23 rings
6 2 3 5 6 7 8 rings
7 4 9 10 11 13 14 15 rings

>  <PUBCHEM_HEAVY_ATOM_COUNT>  (1) 
23

>  <PUBCHEM_ATOM_DEF_STEREO_COUNT>  (1) 
0

>  <PUBCHEM_ATOM_UDEF_STEREO_COUNT>  (1) 
0

>  <PUBCHEM_BOND_DEF_STEREO_COUNT>  (1) 
0

>  <PUBCHEM_BOND_UDEF_STEREO_COUNT>  (1) 
0

>  <PUBCHEM_ISOTOPIC_ATOM_COUNT>  (1) 
0

>  <PUBCHEM_COMPONENT_COUNT>  (1) 
1

>  <PUBCHEM_CACTVS_TAUTO_COUNT>  (1) 
1

>  <PUBCHEM_CONFORMER_ID>  (1) 
0000C0E500000001

>  <PUBCHEM_MMFF94_ENERGY>  (1) 
78.7447

>  <PUBCHEM_FEATURE_SELFOVERLAP>  (1) 
30.472

>  <PUBCHEM_SHAPE_FINGERPRINT>  (1) 
10906281 52 18043253650698153808
116883 192 18335976536692147501
12553582 1 18333725810556957115
12617007 42 18114459075557661709
12623949 98 17775015586720374534
12788726 201 18041840601872158610
13009979 54 18200893845528840201
13140716 1 17905031900649480768
13533116 47 18058446681238382027
13583140 156 15266768906593025507
13681431 1 17970076736252760453
138480 1 14951242797641447420
14022347 108 18113330933693507563
14170010 4 18339921627878888235
14178000 29 18411983593702997503
14347332 77 18192434070137613830
14790565 3 17689717463413604685
14955137 171 18263669332429787867
15081414 286 18263927798876900785
15420108 30 17404561764323175864
15848700 24 18410007758148604057
15848702 151 18343581862916233507
1601671 61 18338800142570847168
16945 1 17977377236316816032
17357779 13 18336530669077496069
17492 54 17970644102070839844
17492 89 18050286165945946323
17818456 19 17988935478894734401
1813 80 18334297586520185869
18222031 100 18411132558707531211
19141452 34 18272373057685192315
20645477 70 18118957238288971163
21267235 1 18340774831574934931
21285901 2 18412547582991285334
21641784 216 18041297482284150188
221490 88 18120378915218883283
22182313 1 18266717186804082696
22907989 373 18118127978693494988
23352939 185 18340779220862680520
23419403 2 17845067654532640088
23557571 272 18335416842735107328
23559900 14 18270111465472666547
2748010 2 18267281219331875368
2871803 45 18335419050021646226
352729 6 17472122991057070241
38695281 34 17615972548660537092
4409770 3 17976538312738519781
46194498 28 18043239340098615189
5207 123 18412822499869114599
57262259 84 18267308633949532436
58779409 8 17902507082570874500
621550 34 18271513291469443976
6443956 14 18337106881853107765
7164475 11 18189616030351322178
7237137 82 18192165810779820662
7364860 26 18121781900508638313
81228 2 18188497865058087808
9709674 26 18120372322697460379
9971528 1 18340200894862568121

>  <PUBCHEM_SHAPE_MULTIPOLES>  (1) 
451.11
9
3.78
1.09
4.39
3.22
0.01
-8.59
1.05
-0.62
1.47
-0.19
0.3
1.04

>  <PUBCHEM_SHAPE_SELFOVERLAP>  (1) 
987.706

>  <PUBCHEM_SHAPE_VOLUME>  (1) 
244.6

>  <PUBCHEM_COORDINATE_TYPE>  (1) 
2
5
10

$$$$
