49384
     RDKit          3D

 19 20  0  0  0  0  0  0  0  0999 V2000
    1.8074   -3.9508   -1.2339 Cl  0  0  0  0  0  0  0  0  0  0  0  0
   -0.2621   -2.9682    0.4128 O   0  0  0  0  0  0  0  0  0  0  0  0
    0.1461   -0.6585    0.4789 N   0  0  0  0  0  0  0  0  0  0  0  0
   -2.2432    0.0918    0.6375 N   0  0  0  0  0  0  0  0  0  0  0  0
   -2.4053    1.4079    0.5100 N   0  0  0  0  0  0  0  0  0  0  0  0
    0.9800    0.4136    0.1430 C   0  0  0  0  0  0  0  0  0  0  0  0
   -1.0606   -0.4112    1.3461 C   0  0  0  0  0  0  0  0  0  0  0  0
    0.7682    1.1168   -1.0428 C   0  0  0  0  0  0  0  0  0  0  0  0
    2.0231    0.7792    0.9939 C   0  0  0  0  0  0  0  0  0  0  0  0
    0.4394   -2.0109    0.0740 C   0  0  0  0  0  0  0  0  0  0  0  0
    1.5995    2.1856   -1.3778 C   0  0  0  0  0  0  0  0  0  0  0  0
    2.8542    1.8483    0.6591 C   0  0  0  0  0  0  0  0  0  0  0  0
   -0.3405    0.7495   -1.9752 C   0  0  0  0  0  0  0  0  0  0  0  0
    2.2756    0.0453    2.2710 C   0  0  0  0  0  0  0  0  0  0  0  0
    2.6425    2.5515   -0.5267 C   0  0  0  0  0  0  0  0  0  0  0  0
   -3.2111   -0.6704    0.0859 C   0  0  0  0  0  0  0  0  0  0  0  0
    1.6407   -2.2292   -0.8285 C   0  0  0  0  0  0  0  0  0  0  0  0
   -4.1007    0.2229   -0.4592 C   0  0  0  0  0  0  0  0  0  0  0  0
   -3.5534    1.4869   -0.1680 C   0  0  0  0  0  0  0  0  0  0  0  0
  1 17  1  0
  2 10  2  0
  3  6  1  0
  3  7  1  0
  3 10  1  0
  4  5  1  0
  4  7  1  0
  4 16  1  0
  5 19  2  0
  6  8  2  0
  6  9  1  0
  8 11  1  0
  8 13  1  0
  9 12  2  0
  9 14  1  0
 10 17  1  0
 11 15  2  0
 12 15  1  0
 16 18  2  0
 18 19  1  0
M  END
>  <PUBCHEM_COMPOUND_CID>  (1) 
49384

>  <PUBCHEM_CONFORMER_RMSD>  (1) 
0.8

>  <PUBCHEM_CONFORMER_DIVERSEORDER>  (1) 
1
28
16
20
33
3
6
22
17
8
24
36
31
26
21
4
13
15
11
2
35
27
9
25
10
30
5
23
29
12
18
37
38
32
19
14
7
34

>  <PUBCHEM_MMFF94_PARTIAL_CHARGES>  (1) 
25
1 -0.29
10 0.57
11 -0.15
12 -0.15
13 0.14
14 0.14
15 -0.15
16 -0.3
17 0.35
18 -0.15
19 0.14
2 -0.57
22 0.15
23 0.15
3 -0.48
30 0.15
31 0.15
34 0.15
35 0.15
4 0.31
5 -0.71
6 0.12
7 0.56
8 -0.14
9 -0.14

>  <PUBCHEM_EFFECTIVE_ROTOR_COUNT>  (1) 
5

>  <PUBCHEM_PHARMACOPHORE_FEATURES>  (1) 
4
1 2 acceptor
1 5 acceptor
5 4 5 16 18 19 rings
6 6 8 9 11 12 15 rings

>  <PUBCHEM_HEAVY_ATOM_COUNT>  (1) 
19

>  <PUBCHEM_ATOM_DEF_STEREO_COUNT>  (1) 
0

>  <PUBCHEM_ATOM_UDEF_STEREO_COUNT>  (1) 
0

>  <PUBCHEM_BOND_DEF_STEREO_COUNT>  (1) 
0

>  <PUBCHEM_BOND_UDEF_STEREO_COUNT>  (1) 
0

>  <PUBCHEM_ISOTOPIC_ATOM_COUNT>  (1) 
0

>  <PUBCHEM_COMPONENT_COUNT>  (1) 
1

>  <PUBCHEM_CACTVS_TAUTO_COUNT>  (1) 
1

>  <PUBCHEM_CONFORMER_ID>  (1) 
0000C0E800000001

>  <PUBCHEM_MMFF94_ENERGY>  (1) 
64.7223

>  <PUBCHEM_FEATURE_SELFOVERLAP>  (1) 
20.297

>  <PUBCHEM_SHAPE_FINGERPRINT>  (1) 
11370993 70 18341046431819951468
12054548 360 17760087311275641614
12423570 1 13968861679952762074
13132413 78 17478072470039713760
14004458 79 17189817277646106606
14181834 199 18410296869777854314
14251745 187 18189909612233919094
14617773 55 17250604856272446340
14713325 29 16235124336366681726
14817 1 14171102481764811522
14955137 171 17335376764813847547
15490181 8 18336550511794826339
15852999 172 18341898553384446434
15906896 17 17757271857265942842
16752209 62 17836921574735444870
16945 1 18197244506106333170
20600515 1 17533512135830578034
21339142 36 17546447778367365118
21524375 3 18116152362171896529
22112679 90 16679809951558117762
23419403 2 17409903866162299314
23559900 14 18341889637338145499
23598288 3 17686618356972702010
23598291 2 17898269857220916186
25222932 49 16482987251912957703
2748010 2 18115047263139620187
298252 57 18118133699753385080
576247 118 17690836766123021438
7364860 26 18341897329513679413
81228 2 17047683413855588442
84936 31 18058715910535539526

>  <PUBCHEM_SHAPE_MULTIPOLES>  (1) 
372.07
5.25
3.61
1.65
5.86
3.81
0.13
-2.39
0.38
-3.27
-1.57
-0.94
-0.15
0.49

>  <PUBCHEM_SHAPE_SELFOVERLAP>  (1) 
773.39

>  <PUBCHEM_SHAPE_VOLUME>  (1) 
213.5

>  <PUBCHEM_COORDINATE_TYPE>  (1) 
2
5
10

$$$$
