49383
     RDKit          3D

 16 16  0  0  0  0  0  0  0  0999 V2000
   -1.8057   -0.5384    0.2295 S   0  0  0  0  0  0  0  0  0  0  0  0
    0.3409   -1.1513   -2.1316 O   0  0  0  0  0  0  0  0  0  0  0  0
    0.4726    1.3255    1.8557 O   0  0  0  0  0  0  0  0  0  0  0  0
    3.7437   -1.7441    0.8894 O   0  0  0  0  0  0  0  0  0  0  0  0
    2.0926   -1.3743   -0.6671 N   0  0  0  0  0  0  0  0  0  0  0  0
    2.1579   -0.1375    1.3250 N   0  0  0  0  0  0  0  0  0  0  0  0
    0.6114    0.5688   -0.4440 C   0  0  0  0  0  0  0  0  0  0  0  0
    1.3645    1.6979   -1.1700 C   0  0  0  0  0  0  0  0  0  0  0  0
   -0.9003    0.8179   -0.5488 C   0  0  0  0  0  0  0  0  0  0  0  0
    0.9642   -0.7332   -1.1561 C   0  0  0  0  0  0  0  0  0  0  0  0
    1.0358    0.6185    1.0204 C   0  0  0  0  0  0  0  0  0  0  0  0
    1.1020    3.0337   -0.5117 C   0  0  0  0  0  0  0  0  0  0  0  0
   -3.4886    0.0555   -0.0641 C   0  0  0  0  0  0  0  0  0  0  0  0
    2.7448   -1.1170    0.5327 C   0  0  0  0  0  0  0  0  0  0  0  0
   -4.5071   -0.9056    0.5385 C   0  0  0  0  0  0  0  0  0  0  0  0
   -5.9285   -0.4164    0.3023 C   0  0  0  0  0  0  0  0  0  0  0  0
  1  9  1  0
  1 13  1  0
  2 10  2  0
  3 11  2  0
  4 14  2  0
  5 10  1  0
  5 14  1  0
  6 11  1  0
  6 14  1  0
  7  8  1  0
  7  9  1  0
  7 10  1  0
  7 11  1  0
  8 12  1  0
 13 15  1  0
 15 16  1  0
M  END
>  <PUBCHEM_COMPOUND_CID>  (1) 
49383

>  <PUBCHEM_CONFORMER_RMSD>  (1) 
0.6

>  <PUBCHEM_CONFORMER_DIVERSEORDER>  (1) 
1
31
32
22
24
14
20
37
16
38
28
25
34
17
18
23
35
29
3
26
6
36
30
15
21
2
19
33
11
10
27
12
5
13
4
7
8
9

>  <PUBCHEM_MMFF94_PARTIAL_CHARGES>  (1) 
14
1 -0.46
10 0.57
11 0.57
13 0.23
14 0.69
2 -0.57
24 0.37
25 0.37
3 -0.57
4 -0.57
5 -0.49
6 -0.49
7 0.12
9 0.23

>  <PUBCHEM_EFFECTIVE_ROTOR_COUNT>  (1) 
5.6

>  <PUBCHEM_PHARMACOPHORE_FEATURES>  (1) 
9
1 12 hydrophobe
1 16 hydrophobe
1 2 acceptor
1 3 acceptor
1 4 acceptor
1 5 donor
1 6 donor
4 1 9 13 15 hydrophobe
6 5 6 7 10 11 14 rings

>  <PUBCHEM_HEAVY_ATOM_COUNT>  (1) 
16

>  <PUBCHEM_ATOM_DEF_STEREO_COUNT>  (1) 
0

>  <PUBCHEM_ATOM_UDEF_STEREO_COUNT>  (1) 
0

>  <PUBCHEM_BOND_DEF_STEREO_COUNT>  (1) 
0

>  <PUBCHEM_BOND_UDEF_STEREO_COUNT>  (1) 
0

>  <PUBCHEM_ISOTOPIC_ATOM_COUNT>  (1) 
0

>  <PUBCHEM_COMPONENT_COUNT>  (1) 
1

>  <PUBCHEM_CACTVS_TAUTO_COUNT>  (1) 
5

>  <PUBCHEM_CONFORMER_ID>  (1) 
0000C0E700000001

>  <PUBCHEM_MMFF94_ENERGY>  (1) 
39.8179

>  <PUBCHEM_FEATURE_SELFOVERLAP>  (1) 
45.712

>  <PUBCHEM_SHAPE_FINGERPRINT>  (1) 
10610426 29 17168417152259220982
11578080 2 16154802714282400332
13134695 92 18272356582037761577
14344429 50 17967252022314059607
14863182 85 17275117114866906039
16945 1 17489007285371925966
18186145 218 16733259140931298971
20559304 39 17489319585318519913
20645477 70 18113899412003230203
21637258 2 17749940068887356098
23419403 2 18126256732360839720
23590187 302 13695587750321275279
2748010 2 16841055033169270286
3286 77 18040154015934400095
54040823 5 18261967313725033694
7364860 26 18261675990214662205
81539 233 17825395334027317629

>  <PUBCHEM_SHAPE_MULTIPOLES>  (1) 
305.55
7.47
2.1
1.47
15.28
1.43
0.11
-3.64
-1.65
-2.25
0.16
-0.86
-0.09
-0.19

>  <PUBCHEM_SHAPE_SELFOVERLAP>  (1) 
602.347

>  <PUBCHEM_SHAPE_VOLUME>  (1) 
184.4

>  <PUBCHEM_COORDINATE_TYPE>  (1) 
2
5
10

$$$$
