49386
     RDKit          3D

 11 11  0  0  0  0  0  0  0  0999 V2000
   -1.8934    0.7231   -0.7059 O   0  0  0  0  0  0  0  0  0  0  0  0
    3.1344    0.1050    0.1263 N   0  0  0  0  0  0  0  0  0  0  0  0
    0.7368   -0.1023    0.0764 N   0  0  0  0  0  0  0  0  0  0  0  0
   -0.2961   -1.0382   -0.3589 C   0  0  0  0  0  0  0  0  0  0  0  0
   -1.6518   -0.4519   -0.0968 C   0  0  0  0  0  0  0  0  0  0  0  0
    1.9347   -0.5240   -0.1541 C   0  0  0  0  0  0  0  0  0  0  0  0
   -2.7000   -0.8804    0.6466 C   0  0  0  0  0  0  0  0  0  0  0  0
    4.4068   -0.5217   -0.2031 C   0  0  0  0  0  0  0  0  0  0  0  0
    3.1784    1.5077    0.5150 C   0  0  0  0  0  0  0  0  0  0  0  0
   -3.6945    0.1147    0.4930 C   0  0  0  0  0  0  0  0  0  0  0  0
   -3.1555    1.0683   -0.3387 C   0  0  0  0  0  0  0  0  0  0  0  0
  1  5  1  0
  1 11  1  0
  2  6  1  0
  2  8  1  0
  2  9  1  0
  3  4  1  0
  3  6  2  0
  4  5  1  0
  5  7  2  0
  7 10  1  0
 10 11  2  0
M  END
>  <PUBCHEM_COMPOUND_CID>  (1) 
49386

>  <PUBCHEM_CONFORMER_RMSD>  (1) 
0.6

>  <PUBCHEM_CONFORMER_DIVERSEORDER>  (1) 
1
16
11
15
13
4
3
10
7
5
2
8
14
9
12
6

>  <PUBCHEM_MMFF94_PARTIAL_CHARGES>  (1) 
15
1 -0.28
10 -0.15
11 -0.01
14 0.06
15 0.15
2 -0.79
22 0.15
23 0.15
3 -0.7
4 0.43
5 -0.04
6 0.44
7 -0.15
8 0.37
9 0.37

>  <PUBCHEM_EFFECTIVE_ROTOR_COUNT>  (1) 
3

>  <PUBCHEM_PHARMACOPHORE_FEATURES>  (1) 
3
1 1 acceptor
3 2 3 6 cation
5 1 5 7 10 11 rings

>  <PUBCHEM_HEAVY_ATOM_COUNT>  (1) 
11

>  <PUBCHEM_ATOM_DEF_STEREO_COUNT>  (1) 
0

>  <PUBCHEM_ATOM_UDEF_STEREO_COUNT>  (1) 
0

>  <PUBCHEM_BOND_DEF_STEREO_COUNT>  (1) 
0

>  <PUBCHEM_BOND_UDEF_STEREO_COUNT>  (1) 
0

>  <PUBCHEM_ISOTOPIC_ATOM_COUNT>  (1) 
0

>  <PUBCHEM_COMPONENT_COUNT>  (1) 
1

>  <PUBCHEM_CACTVS_TAUTO_COUNT>  (1) 
1

>  <PUBCHEM_CONFORMER_ID>  (1) 
0000C0EA00000001

>  <PUBCHEM_MMFF94_ENERGY>  (1) 
14.3351

>  <PUBCHEM_FEATURE_SELFOVERLAP>  (1) 
15.223

>  <PUBCHEM_SHAPE_FINGERPRINT>  (1) 
10608611 8 18410290306898988524
11062470 55 13039187000556223154
12932764 1 18114168744679990642
14325111 11 18411418427388202254
18186145 218 18060423521160825898
190213 19 17167861971796039078
20281407 28 11314309451211270910
20645464 45 18412269419634637767
21119208 17 14261352444465773393
22485316 2 11169912800964471993
23402539 116 13758071853249428650
3248919 1 16415487068583375798
42 15 17967531242707499962
581208 293 10809342256851048216

>  <PUBCHEM_SHAPE_MULTIPOLES>  (1) 
210.54
8.16
1.22
0.75
4.52
0.29
0.02
1.14
0.64
0.22
0.04
-0.23
0.03
0.59

>  <PUBCHEM_SHAPE_SELFOVERLAP>  (1) 
419.864

>  <PUBCHEM_SHAPE_VOLUME>  (1) 
126.7

>  <PUBCHEM_COORDINATE_TYPE>  (1) 
2
5
10

$$$$
