49397
     RDKit          3D

 22 25  0  0  1  0  0  0  0  0999 V2000
   -2.4436    1.2540    0.8411 N   0  0  0  0  0  0  0  0  0  0  0  0
   -2.0925    0.7476   -0.4916 C   0  0  0  0  0  0  0  0  0  0  0  0
   -0.6132    1.0216   -0.7561 C   0  0  0  0  0  0  0  0  0  0  0  0
    0.2706    0.3599    0.3125 C   0  0  0  0  0  0  0  0  0  0  0  0
   -2.9630    1.4057   -1.5709 C   0  0  0  0  0  0  0  0  0  0  0  0
   -4.4482    1.2114   -1.2780 C   0  0  0  0  0  0  0  0  0  0  0  0
    0.0674   -1.1446    0.3729 C   0  0  0  0  0  0  0  0  0  0  0  0
    1.7027    0.8838    0.2610 C   0  0  0  0  0  0  0  0  0  0  0  0
   -4.7779    1.6627    0.1407 C   0  0  0  0  0  0  0  0  0  0  0  0
   -3.8499    1.0058    1.1596 C   0  0  0  0  0  0  0  0  0  0  0  0
    0.5824   -2.0268   -0.5901 C   0  0  0  0  0  0  0  0  0  0  0  0
    2.7926    0.2939   -0.4098 C   0  0  0  0  0  0  0  0  0  0  0  0
    1.4604   -1.5351   -1.7050 C   0  0  0  0  0  0  0  0  0  0  0  0
    2.7858   -1.0135   -1.1704 C   0  0  0  0  0  0  0  0  0  0  0  0
   -0.7199   -1.6743    1.4155 C   0  0  0  0  0  0  0  0  0  0  0  0
    1.9226    2.1107    0.9374 C   0  0  0  0  0  0  0  0  0  0  0  0
    0.3066   -3.4027   -0.4929 C   0  0  0  0  0  0  0  0  0  0  0  0
    4.0558    0.9303   -0.3418 C   0  0  0  0  0  0  0  0  0  0  0  0
   -0.9846   -3.0409    1.5034 C   0  0  0  0  0  0  0  0  0  0  0  0
    3.1725    2.7260    0.9776 C   0  0  0  0  0  0  0  0  0  0  0  0
   -0.4719   -3.9063    0.5467 C   0  0  0  0  0  0  0  0  0  0  0  0
    4.2452    2.1308    0.3382 C   0  0  0  0  0  0  0  0  0  0  0  0
  1  2  1  0
  1 10  1  0
  2  3  1  0
  2  5  1  0
  3  4  1  0
  4  7  1  0
  4  8  1  0
  5  6  1  0
  6  9  1  0
  7 11  2  0
  7 15  1  0
  8 12  2  0
  8 16  1  0
  9 10  1  0
 11 13  1  0
 11 17  1  0
 12 14  1  0
 12 18  1  0
 13 14  1  0
 15 19  2  0
 16 20  2  0
 17 21  2  0
 18 22  2  0
 19 21  1  0
 20 22  1  0
M  END
>  <PUBCHEM_COMPOUND_CID>  (1) 
49397

>  <PUBCHEM_CONFORMER_RMSD>  (1) 
0.6

>  <PUBCHEM_CONFORMER_DIVERSEORDER>  (1) 
1
19
5
13
12
18
17
7
10
15
9
6
8
11
16
2
4
14
3

>  <PUBCHEM_MMFF94_PARTIAL_CHARGES>  (1) 
27
1 -0.9
10 0.27
11 -0.14
12 -0.14
13 0.14
14 0.14
15 -0.15
16 -0.15
17 -0.15
18 -0.15
19 -0.15
2 0.27
20 -0.15
21 -0.15
22 -0.15
31 0.36
4 0.29
40 0.15
41 0.15
42 0.15
43 0.15
44 0.15
45 0.15
46 0.15
47 0.15
7 -0.14
8 -0.14

>  <PUBCHEM_EFFECTIVE_ROTOR_COUNT>  (1) 
3.8

>  <PUBCHEM_PHARMACOPHORE_FEATURES>  (1) 
6
1 1 cation
1 1 donor
6 1 2 5 6 9 10 rings
6 7 11 15 17 19 21 rings
6 8 12 16 18 20 22 rings
7 4 7 8 11 12 13 14 rings

>  <PUBCHEM_HEAVY_ATOM_COUNT>  (1) 
22

>  <PUBCHEM_ATOM_DEF_STEREO_COUNT>  (1) 
0

>  <PUBCHEM_ATOM_UDEF_STEREO_COUNT>  (1) 
1

>  <PUBCHEM_BOND_DEF_STEREO_COUNT>  (1) 
0

>  <PUBCHEM_BOND_UDEF_STEREO_COUNT>  (1) 
0

>  <PUBCHEM_ISOTOPIC_ATOM_COUNT>  (1) 
0

>  <PUBCHEM_COMPONENT_COUNT>  (1) 
1

>  <PUBCHEM_CACTVS_TAUTO_COUNT>  (1) 
1

>  <PUBCHEM_CONFORMER_ID>  (1) 
0000C0F500000001

>  <PUBCHEM_MMFF94_ENERGY>  (1) 
55.5684

>  <PUBCHEM_FEATURE_SELFOVERLAP>  (1) 
30.462

>  <PUBCHEM_SHAPE_FINGERPRINT>  (1) 
10165383 225 18117021929850888812
10871710 139 16889513151261731700
1100329 8 18337947879747945570
11578080 2 18121811523346368356
12035758 1 18410865339128086074
12532896 13 18336539503572009566
12553582 1 17185879390037133123
12643181 29 18411141351708099604
12730499 353 18336271137616182081
12788726 201 17762876050694663650
13140716 1 18409446960100626115
13149001 5 18197805269932067886
13540713 4 17985275312234389684
13583140 156 15936955453042233493
13681431 1 17616516377102415299
14251764 3 18260264127237932301
14787075 74 18129097991261663305
15420108 30 16117711531665425840
16945 1 18198621025601765446
1813 80 17197418824325813999
20567600 347 18187636977929727543
21033648 29 18188755211083330380
21049683 118 18122031408133319633
21421861 104 17905610995263875729
21452121 199 17398661312202402803
21524375 3 18409439280682977556
22182313 1 18267606743202945438
2255824 54 18127687137058967951
22907989 373 17834118919522313532
23419403 2 17554938460306674326
23558518 356 18195235848369529605
23559900 14 17025159510507495007
238 59 18272653411295331667
25 1 18272089387827264580
25222932 49 14858984465583533905
2748010 2 18197799849851943654
3380486 145 16685680239733031267
3383291 50 18194681459220742610
427121 178 18113902632547992849
4340502 62 18409737253330835097
469060 322 17531517802606441527
474 4 18343862208153333321
495365 180 17825651276098491789
5845 1 11315976164826038884
633830 44 18272655601982386541
6442390 28 18408609188386032787
6669772 16 18336541643088501018
81228 2 17828198027894667779
90316 7 17544481207236777250
9981440 41 16552519361630511968

>  <PUBCHEM_SHAPE_MULTIPOLES>  (1) 
447.77
7.35
4.1
1.48
3.4
4.14
-0.13
-8.22
-0.62
-0.44
1.02
0.51
0.25
1.68

>  <PUBCHEM_SHAPE_SELFOVERLAP>  (1) 
965.909

>  <PUBCHEM_SHAPE_VOLUME>  (1) 
240.1

>  <PUBCHEM_COORDINATE_TYPE>  (1) 
2
5
10

$$$$
