49392
     RDKit          3D

 16 17  0  0  0  0  0  0  0  0999 V2000
    0.2745    1.9586    1.0121 S   0  0  0  0  0  0  0  0  0  0  0  0
   -0.7947    1.8992   -0.7471 S   0  0  0  0  0  0  0  0  0  0  0  0
   -0.7051   -1.0267   -1.1484 O   0  0  0  0  0  0  0  0  0  0  0  0
    4.1609    0.0850   -1.5373 O   0  0  0  0  0  0  0  0  0  0  0  0
   -1.8185   -0.6384   -0.6283 N   0  0  0  0  0  0  0  0  0  0  0  0
    3.3523   -0.0639   -0.5484 N   0  0  0  0  0  0  0  0  0  0  0  0
    1.5250    0.7307    0.7219 C   0  0  0  0  0  0  0  0  0  0  0  0
   -2.0273    0.6639   -0.3781 C   0  0  0  0  0  0  0  0  0  0  0  0
    2.4119    0.8668   -0.3365 C   0  0  0  0  0  0  0  0  0  0  0  0
    1.6346   -0.3828    1.5495 C   0  0  0  0  0  0  0  0  0  0  0  0
   -3.2311    1.0738    0.1825 C   0  0  0  0  0  0  0  0  0  0  0  0
    2.6210   -1.3335    1.3058 C   0  0  0  0  0  0  0  0  0  0  0  0
   -2.7329   -1.5797   -0.3576 C   0  0  0  0  0  0  0  0  0  0  0  0
   -4.1989    0.1173    0.4745 C   0  0  0  0  0  0  0  0  0  0  0  0
    3.4799   -1.1455    0.2323 C   0  0  0  0  0  0  0  0  0  0  0  0
   -3.9515   -1.2248    0.2032 C   0  0  0  0  0  0  0  0  0  0  0  0
  1  2  1  0
  1  7  1  0
  2  8  1  0
  3  5  1  0
  4  6  1  0
  5  8  2  0
  5 13  1  0
  6  9  2  0
  6 15  1  0
  7  9  1  0
  7 10  2  0
  8 11  1  0
 10 12  1  0
 11 14  2  0
 12 15  2  0
 13 16  2  0
 14 16  1  0
M  CHG  4   3  -1   4  -1   5   1   6   1
M  END
>  <PUBCHEM_COMPOUND_CID>  (1) 
49392

>  <PUBCHEM_CONFORMER_RMSD>  (1) 
0.6

>  <PUBCHEM_CONFORMER_DIVERSEORDER>  (1) 
1
88
104
97
87
68
112
118
139
83
7
140
147
125
16
14
76
89
93
90
82
75
150
111
15
138
67
117
103
151
34
13
72
73
22
115
126
21
108
116
135
65
129
107
37
149
141
18
52
38
109
19
70
130
110
148
28
27
64
145
12
101
146
142
3
99
63
2
71
11
102
100
4
5
66
9
137
69
62
10
74
98
36
51
6
61
45
35
92
133
8
134
81
143
120
26
136
23
25
144
96
91
24
57
33
95
114
17
31
78
58
84
50
119
79
32
77
49
80
20
113
94
121
127
47
86
122
128
46
85
54
55
56
40
39
53
60
59
131
132
48
106
124
105
123
30
29
41
43
42
44

>  <PUBCHEM_MMFF94_PARTIAL_CHARGES>  (1) 
24
1 -0.1
10 -0.15
11 -0.15
12 -0.15
13 -0.06
14 -0.15
15 -0.06
16 -0.15
17 0.15
18 0.15
19 0.15
2 -0.1
20 0.15
21 0.15
22 0.15
23 0.15
24 0.15
3 -0.75
4 -0.75
5 0.57
6 0.57
7 0.1
8 0.19
9 -0.06

>  <PUBCHEM_EFFECTIVE_ROTOR_COUNT>  (1) 
3

>  <PUBCHEM_PHARMACOPHORE_FEATURES>  (1) 
4
1 3 anion
1 4 anion
6 5 8 11 13 14 16 rings
6 6 7 9 10 12 15 rings

>  <PUBCHEM_HEAVY_ATOM_COUNT>  (1) 
16

>  <PUBCHEM_ATOM_DEF_STEREO_COUNT>  (1) 
0

>  <PUBCHEM_ATOM_UDEF_STEREO_COUNT>  (1) 
0

>  <PUBCHEM_BOND_DEF_STEREO_COUNT>  (1) 
0

>  <PUBCHEM_BOND_UDEF_STEREO_COUNT>  (1) 
0

>  <PUBCHEM_ISOTOPIC_ATOM_COUNT>  (1) 
0

>  <PUBCHEM_COMPONENT_COUNT>  (1) 
1

>  <PUBCHEM_CACTVS_TAUTO_COUNT>  (1) 
1

>  <PUBCHEM_CONFORMER_ID>  (1) 
0000C0F000000001

>  <PUBCHEM_MMFF94_ENERGY>  (1) 
33.7028

>  <PUBCHEM_FEATURE_SELFOVERLAP>  (1) 
20.297

>  <PUBCHEM_SHAPE_FINGERPRINT>  (1) 
10751810 167 18410859849721933945
11140007 195 16988576696613430457
11370993 70 9871754572288559153
11578080 2 18043503110851957860
12553582 1 18408597076356510633
128620 24 13840266991887842979
13221675 6 18335416863576798209
13296908 3 18272359897462201465
14251732 17 14188753822304066563
14251764 30 18268451129352264775
15239191 94 18410288129587809971
15276787 5 15626226831328901105
15375462 189 18334856112641481384
16752209 62 18196354941170413417
17804303 29 18272373092176721465
18522851 12 18334012795965879523
18915474 69 18187085057125125394
19422 9 18260267417071838401
19766037 51 18335420196619113251
20291156 8 18334855017519844065
20442098 301 18129652140346969151
21634736 98 18408890667568163400
23402539 116 16588017979644272436
23463225 33 18410290315757773117
328317 168 12396586264228630818
351380 180 13686300145462606907
465052 167 18338805615024015491
7364860 26 17984980646395365368
94968 8 18261670475529005595

>  <PUBCHEM_SHAPE_MULTIPOLES>  (1) 
315.27
7.76
1.91
1.28
0.74
0.36
-0.07
-2.61
0.59
0.46
-0.13
-0.93
0
-0.45

>  <PUBCHEM_SHAPE_SELFOVERLAP>  (1) 
647.173

>  <PUBCHEM_SHAPE_VOLUME>  (1) 
185.1

>  <PUBCHEM_COORDINATE_TYPE>  (1) 
2
5
10

$$$$
