49404
     RDKit          3D

 25 27  0  0  0  0  0  0  0  0999 V2000
   -3.8103    1.9930   -1.3774 O   0  0  0  0  0  0  0  0  0  0  0  0
   -5.1070    0.4721    0.5514 O   0  0  0  0  0  0  0  0  0  0  0  0
    4.7857    2.1975    0.5743 N   0  0  0  0  0  0  0  0  0  0  0  0
    0.4750    0.0005   -0.1819 C   0  0  0  0  0  0  0  0  0  0  0  0
   -0.9860    0.1122    0.0301 C   0  0  0  0  0  0  0  0  0  0  0  0
    1.1501   -1.2930   -0.4321 C   0  0  0  0  0  0  0  0  0  0  0  0
   -1.6447   -0.6787    0.9910 C   0  0  0  0  0  0  0  0  0  0  0  0
    2.7206    1.1159   -0.1829 C   0  0  0  0  0  0  0  0  0  0  0  0
    1.2290    1.1100   -0.0694 C   0  0  0  0  0  0  0  0  0  0  0  0
    0.9596   -2.3919    0.4275 C   0  0  0  0  0  0  0  0  0  0  0  0
    3.3311    2.2186    0.6811 C   0  0  0  0  0  0  0  0  0  0  0  0
   -1.7351    0.9999   -0.7652 C   0  0  0  0  0  0  0  0  0  0  0  0
   -0.9548   -1.6153    1.8949 C   0  0  0  0  0  0  0  0  0  0  0  0
    0.1485   -2.3412    1.6562 C   0  0  0  0  0  0  0  0  0  0  0  0
   -3.0333   -0.5297    1.1577 C   0  0  0  0  0  0  0  0  0  0  0  0
    1.9697   -1.4376   -1.5671 C   0  0  0  0  0  0  0  0  0  0  0  0
   -3.1133    1.1229   -0.5952 C   0  0  0  0  0  0  0  0  0  0  0  0
   -3.7619    0.3606    0.3686 C   0  0  0  0  0  0  0  0  0  0  0  0
    1.6290   -3.5968    0.1485 C   0  0  0  0  0  0  0  0  0  0  0  0
    2.6129   -2.6449   -1.8355 C   0  0  0  0  0  0  0  0  0  0  0  0
    2.4455   -3.7234   -0.9757 C   0  0  0  0  0  0  0  0  0  0  0  0
    5.2029    2.3884   -0.8156 C   0  0  0  0  0  0  0  0  0  0  0  0
    5.3797    3.2267    1.4290 C   0  0  0  0  0  0  0  0  0  0  0  0
   -3.9530    3.3276   -0.8946 C   0  0  0  0  0  0  0  0  0  0  0  0
   -5.9399   -0.3934   -0.2177 C   0  0  0  0  0  0  0  0  0  0  0  0
  1 17  1  0
  1 24  1  0
  2 18  1  0
  2 25  1  0
  3 11  1  0
  3 22  1  0
  3 23  1  0
  4  5  1  0
  4  6  1  0
  4  9  2  0
  5  7  2  0
  5 12  1  0
  6 10  2  0
  6 16  1  0
  7 13  1  0
  7 15  1  0
  8  9  1  0
  8 11  1  0
 10 14  1  0
 10 19  1  0
 12 17  2  0
 13 14  2  0
 15 18  2  0
 16 20  2  0
 17 18  1  0
 19 21  2  0
 20 21  1  0
M  END
>  <PUBCHEM_COMPOUND_CID>  (1) 
49404

>  <PUBCHEM_CONFORMER_RMSD>  (1) 
0.8

>  <PUBCHEM_CONFORMER_DIVERSEORDER>  (1) 
1
4
5
7
8
2
6
3
9
10

>  <PUBCHEM_MMFF94_PARTIAL_CHARGES>  (1) 
34
1 -0.36
10 0.03
11 0.27
12 -0.15
13 -0.18
14 -0.18
15 -0.15
16 -0.15
17 0.08
18 0.08
19 -0.15
2 -0.36
20 -0.15
21 -0.15
22 0.27
23 0.27
24 0.28
25 0.28
28 0.15
3 -0.81
31 0.15
32 0.15
33 0.15
34 0.15
35 0.15
36 0.15
37 0.15
38 0.15
4 -0.06
5 0.03
6 0.03
7 0.03
8 0.14
9 -0.29

>  <PUBCHEM_EFFECTIVE_ROTOR_COUNT>  (1) 
5

>  <PUBCHEM_PHARMACOPHORE_FEATURES>  (1) 
6
1 1 acceptor
1 2 acceptor
1 3 cation
6 5 7 12 15 17 18 rings
6 6 10 16 19 20 21 rings
7 4 5 6 7 10 13 14 rings

>  <PUBCHEM_HEAVY_ATOM_COUNT>  (1) 
25

>  <PUBCHEM_ATOM_DEF_STEREO_COUNT>  (1) 
0

>  <PUBCHEM_ATOM_UDEF_STEREO_COUNT>  (1) 
0

>  <PUBCHEM_BOND_DEF_STEREO_COUNT>  (1) 
0

>  <PUBCHEM_BOND_UDEF_STEREO_COUNT>  (1) 
1

>  <PUBCHEM_ISOTOPIC_ATOM_COUNT>  (1) 
0

>  <PUBCHEM_COMPONENT_COUNT>  (1) 
1

>  <PUBCHEM_CACTVS_TAUTO_COUNT>  (1) 
1

>  <PUBCHEM_CONFORMER_ID>  (1) 
0000C0FC00000001

>  <PUBCHEM_MMFF94_ENERGY>  (1) 
110.6818

>  <PUBCHEM_FEATURE_SELFOVERLAP>  (1) 
30.465

>  <PUBCHEM_SHAPE_FINGERPRINT>  (1) 
10074138 170 17829316235763198714
10369192 42 18337391651165180716
10764073 3 17534597367045269714
10906281 52 18042138698636425253
10930396 42 16832312167597654386
11578080 2 18337402539065297369
12293681 160 17540272955636704906
12549972 3 17897464803786605561
12597179 24 18337112375237670194
13140716 1 17824817841989696161
13540713 4 18115592539682530405
15230672 131 18335708291490893636
17980427 23 17460034208644216111
17980427 26 18044637737968062151
1813 80 16913991179594387798
18915476 22 18272103689968139922
20554085 129 17917135208900148272
20567600 254 18334287712443295349
22182313 1 18043275567984843835
22393880 68 18042687187804018423
23559900 14 18042144110020918422
23598288 3 17540261269246340268
238918 7 18409725188535936508
2748010 2 17972069021442402411
3298306 158 18412267259603496684
376196 1 18337940256054082864
46194498 28 18270683056963695007
495365 180 18343866628259665194
5104073 3 18115028485970201977
5265222 85 18191599755961098916
5385378 56 18341339932895261832
59554788 281 16732984236848460937
59755656 215 18411987991496177741
7399639 24 18409173229413952751
9862522 239 18123755511401522914
9981440 41 18409721902490199616

>  <PUBCHEM_SHAPE_MULTIPOLES>  (1) 
497.77
10.35
4.57
1.55
3.33
1.11
0.12
-10.81
-0.2
-5.7
-0.45
-0.45
0.51
3.12

>  <PUBCHEM_SHAPE_SELFOVERLAP>  (1) 
1065.301

>  <PUBCHEM_SHAPE_VOLUME>  (1) 
276.7

>  <PUBCHEM_COORDINATE_TYPE>  (1) 
2
5
10

$$$$
