49401
     RDKit          3D

 22 24  0  0  1  0  0  0  0  0999 V2000
    4.6877   -1.0675    0.6582 O   0  0  0  0  0  0  0  0  0  0  0  0
    4.2020   -0.8041   -0.6923 N   0  0  0  0  0  0  0  0  0  0  0  0
   -2.9692    0.7709   -1.3939 C   0  0  0  0  0  0  0  0  0  0  0  0
   -1.6215    1.3542   -1.8207 C   0  0  0  0  0  0  0  0  0  0  0  0
   -0.5763   -0.3380    0.2733 C   0  0  0  0  0  0  0  0  0  0  0  0
   -2.9921   -0.4782   -0.5306 C   0  0  0  0  0  0  0  0  0  0  0  0
   -0.8747    1.9524   -0.6561 C   0  0  0  0  0  0  0  0  0  0  0  0
   -1.9138   -0.9863    0.2274 C   0  0  0  0  0  0  0  0  0  0  0  0
   -0.3724    1.1233    0.3605 C   0  0  0  0  0  0  0  0  0  0  0  0
    0.5310   -1.0929    0.1333 C   0  0  0  0  0  0  0  0  0  0  0  0
    1.9205   -0.5413    0.1641 C   0  0  0  0  0  0  0  0  0  0  0  0
   -4.2352   -1.1472   -0.4700 C   0  0  0  0  0  0  0  0  0  0  0  0
   -0.6801    3.3386   -0.5729 C   0  0  0  0  0  0  0  0  0  0  0  0
   -2.1259   -2.1341    1.0230 C   0  0  0  0  0  0  0  0  0  0  0  0
    0.3094    1.6914    1.4476 C   0  0  0  0  0  0  0  0  0  0  0  0
    2.8565   -1.3667   -0.7179 C   0  0  0  0  0  0  0  0  0  0  0  0
   -4.4169   -2.2887    0.3080 C   0  0  0  0  0  0  0  0  0  0  0  0
    0.0027    3.8939    0.5091 C   0  0  0  0  0  0  0  0  0  0  0  0
   -3.3604   -2.7818    1.0575 C   0  0  0  0  0  0  0  0  0  0  0  0
    0.4960    3.0716    1.5186 C   0  0  0  0  0  0  0  0  0  0  0  0
    5.1007   -1.5598   -1.5609 C   0  0  0  0  0  0  0  0  0  0  0  0
    6.0321   -0.6098    0.7346 C   0  0  0  0  0  0  0  0  0  0  0  0
  1  2  1  0
  1 22  1  0
  2 16  1  0
  2 21  1  0
  3  4  1  0
  3  6  1  0
  4  7  1  0
  5  8  1  0
  5  9  1  0
  5 10  2  3
  6  8  2  0
  6 12  1  0
  7  9  2  0
  7 13  1  0
  8 14  1  0
  9 15  1  0
 10 11  1  0
 11 16  1  0
 12 17  2  0
 13 18  2  0
 14 19  2  0
 15 20  2  0
 17 19  1  0
 18 20  1  0
M  END
>  <PUBCHEM_COMPOUND_CID>  (1) 
49401

>  <PUBCHEM_CONFORMER_RMSD>  (1) 
0.8

>  <PUBCHEM_CONFORMER_DIVERSEORDER>  (1) 
1
16
8
27
13
7
17
26
18
28
25
23
12
11
14
2
5
3
22
9
20
6
10
4
15
19
24
29
21

>  <PUBCHEM_MMFF94_PARTIAL_CHARGES>  (1) 
31
1 -0.18
10 -0.29
11 0.14
12 -0.15
13 -0.15
14 -0.15
15 -0.15
16 0.27
17 -0.15
18 -0.15
19 -0.15
2 -0.64
20 -0.15
21 0.27
22 0.28
27 0.15
3 0.14
30 0.15
31 0.15
32 0.15
33 0.15
36 0.15
37 0.15
38 0.15
39 0.15
4 0.14
5 -0.06
6 -0.14
7 -0.14
8 0.03
9 0.03

>  <PUBCHEM_EFFECTIVE_ROTOR_COUNT>  (1) 
4.4

>  <PUBCHEM_PHARMACOPHORE_FEATURES>  (1) 
3
6 6 8 12 14 17 19 rings
6 7 9 13 15 18 20 rings
7 3 4 5 6 7 8 9 rings

>  <PUBCHEM_HEAVY_ATOM_COUNT>  (1) 
22

>  <PUBCHEM_ATOM_DEF_STEREO_COUNT>  (1) 
0

>  <PUBCHEM_ATOM_UDEF_STEREO_COUNT>  (1) 
0

>  <PUBCHEM_BOND_DEF_STEREO_COUNT>  (1) 
0

>  <PUBCHEM_BOND_UDEF_STEREO_COUNT>  (1) 
0

>  <PUBCHEM_ISOTOPIC_ATOM_COUNT>  (1) 
0

>  <PUBCHEM_COMPONENT_COUNT>  (1) 
1

>  <PUBCHEM_CACTVS_TAUTO_COUNT>  (1) 
1

>  <PUBCHEM_CONFORMER_ID>  (1) 
0000C0F900000001

>  <PUBCHEM_MMFF94_ENERGY>  (1) 
78.1953

>  <PUBCHEM_FEATURE_SELFOVERLAP>  (1) 
15.237

>  <PUBCHEM_SHAPE_FINGERPRINT>  (1) 
10670039 82 18341349821023073548
10764073 3 15691577211311742195
1100329 8 18339369561125396329
12173636 292 17832991542241724716
12293681 160 17907836437011347917
12788726 201 18194114114739180635
13540713 4 17826502556128880071
14790565 3 17834111940475335101
14840074 17 17417247766607636948
17357779 13 18201145590409546380
17980427 23 16988298512135498825
1813 80 17845955003149331934
20600515 1 18268733716878076711
21304303 282 17685748265075468060
21339142 36 18411699863646832391
21728266 224 17968081007206560666
22182313 1 18193817431225648625
23175994 123 18342179985712125399
23419403 2 18269542987432260629
23557571 272 18269850726429191198
23558518 356 17976827480202676330
23559900 14 18114735052965372295
238078 22 18336271166910605574
2748010 2 17898554626617007655
283562 15 18337398141013466178
314173 85 18342747320653362090
458136 41 17547021079376261337
57262259 84 18340497659669618956
59755656 520 17903927651730662812
6786 2 13423296864908527933
7364860 26 18051134997385046497
7399639 24 17988924445155834510
81228 2 18125744308322904577
84936 31 17843120574163815109
9981440 41 17769632232342026234

>  <PUBCHEM_SHAPE_MULTIPOLES>  (1) 
441.9
9.12
4.04
1.44
13.14
3.94
-0.2
-10.01
-1.05
-1.51
0.99
0.14
0.37
1.87

>  <PUBCHEM_SHAPE_SELFOVERLAP>  (1) 
942.263

>  <PUBCHEM_SHAPE_VOLUME>  (1) 
245.3

>  <PUBCHEM_COORDINATE_TYPE>  (1) 
2
5
10

$$$$
