49429
     RDKit          3D

 20 21  0  0  0  0  0  0  0  0999 V2000
    1.9081   -4.4811    1.0110 Cl  0  0  0  0  0  0  0  0  0  0  0  0
   -0.0093   -1.1018   -0.0506 N   0  0  0  0  0  0  0  0  0  0  0  0
   -1.3321   -1.6630   -0.3227 C   0  0  0  0  0  0  0  0  0  0  0  0
    0.3211   -0.0716   -1.0345 C   0  0  0  0  0  0  0  0  0  0  0  0
    1.0040   -2.1563   -0.0546 C   0  0  0  0  0  0  0  0  0  0  0  0
   -2.4094   -0.6128   -0.2664 C   0  0  0  0  0  0  0  0  0  0  0  0
    1.6789    0.5287   -0.7837 C   0  0  0  0  0  0  0  0  0  0  0  0
    0.6689   -3.2036    0.9960 C   0  0  0  0  0  0  0  0  0  0  0  0
   -2.4166    0.3035    0.7758 C   0  0  0  0  0  0  0  0  0  0  0  0
    2.0420    0.8812    0.5085 C   0  0  0  0  0  0  0  0  0  0  0  0
   -3.3793   -0.5750   -1.2585 C   0  0  0  0  0  0  0  0  0  0  0  0
    2.5487    0.7196   -1.8481 C   0  0  0  0  0  0  0  0  0  0  0  0
   -3.4139    1.2773    0.8272 C   0  0  0  0  0  0  0  0  0  0  0  0
    3.3005    1.4360    0.7410 C   0  0  0  0  0  0  0  0  0  0  0  0
   -4.3765    0.3988   -1.2071 C   0  0  0  0  0  0  0  0  0  0  0  0
    3.8071    1.2745   -1.6156 C   0  0  0  0  0  0  0  0  0  0  0  0
   -4.3940    1.3251   -0.1642 C   0  0  0  0  0  0  0  0  0  0  0  0
    4.1831    1.6327   -0.3210 C   0  0  0  0  0  0  0  0  0  0  0  0
   -3.4338    2.2671    1.9427 C   0  0  0  0  0  0  0  0  0  0  0  0
    3.7025    1.8205    2.1248 C   0  0  0  0  0  0  0  0  0  0  0  0
  1  8  1  0
  2  3  1  0
  2  4  1  0
  2  5  1  0
  3  6  1  0
  4  7  1  0
  5  8  1  0
  6  9  2  0
  6 11  1  0
  7 10  2  0
  7 12  1  0
  9 13  1  0
 10 14  1  0
 11 15  2  0
 12 16  2  0
 13 17  2  0
 13 19  1  0
 14 18  2  0
 14 20  1  0
 15 17  1  0
 16 18  1  0
M  END
>  <PUBCHEM_COMPOUND_CID>  (1) 
49429

>  <PUBCHEM_CONFORMER_RMSD>  (1) 
0.8

>  <PUBCHEM_CONFORMER_DIVERSEORDER>  (1) 
1
43
25
48
40
24
44
47
30
26
46
15
50
23
19
45
42
49
22
32
37
9
29
41
12
33
18
39
7
34
3
35
27
8
10
13
38
31
17
21
4
6
14
11
2
20
36
28
16
5

>  <PUBCHEM_MMFF94_PARTIAL_CHARGES>  (1) 
28
1 -0.29
10 -0.15
11 -0.15
12 -0.15
13 -0.14
14 -0.14
15 -0.15
16 -0.15
17 -0.15
18 -0.15
19 0.14
2 -0.81
20 0.14
29 0.15
3 0.41
30 0.15
31 0.15
32 0.15
33 0.15
34 0.15
35 0.15
36 0.15
4 0.41
5 0.27
6 -0.14
7 -0.14
8 0.29
9 -0.15

>  <PUBCHEM_EFFECTIVE_ROTOR_COUNT>  (1) 
6

>  <PUBCHEM_PHARMACOPHORE_FEATURES>  (1) 
3
1 2 cation
6 6 9 11 13 15 17 rings
6 7 10 12 14 16 18 rings

>  <PUBCHEM_HEAVY_ATOM_COUNT>  (1) 
20

>  <PUBCHEM_ATOM_DEF_STEREO_COUNT>  (1) 
0

>  <PUBCHEM_ATOM_UDEF_STEREO_COUNT>  (1) 
0

>  <PUBCHEM_BOND_DEF_STEREO_COUNT>  (1) 
0

>  <PUBCHEM_BOND_UDEF_STEREO_COUNT>  (1) 
0

>  <PUBCHEM_ISOTOPIC_ATOM_COUNT>  (1) 
0

>  <PUBCHEM_COMPONENT_COUNT>  (1) 
1

>  <PUBCHEM_CACTVS_TAUTO_COUNT>  (1) 
1

>  <PUBCHEM_CONFORMER_ID>  (1) 
0000C11500000001

>  <PUBCHEM_MMFF94_ENERGY>  (1) 
57.1212

>  <PUBCHEM_FEATURE_SELFOVERLAP>  (1) 
15.223

>  <PUBCHEM_SHAPE_FINGERPRINT>  (1) 
10498660 4 18059853957106027049
10646746 165 18059859501644834740
10764073 3 15114775481323158791
11370993 144 14490736962647070365
11543360 7 16200152127120121789
11552529 35 15430609479490163417
11582403 64 16985996233534383658
11640471 11 18342177735265111997
11725454 13 17201615956877756720
12160290 23 17902800991351527206
12633257 1 16226034600614922673
12707595 3 11384115232640347669
12788726 201 17321832301915156130
13294875 104 18271247127797805874
133893 2 18189042110503002055
13878862 14 17974841775663087925
14251757 17 17060344049736412112
14251764 38 17703225229985229520
14468879 13 16985168378466779888
14739800 52 17916847059201446033
15842332 3 18129094529528773663
16752209 62 17901098938935823026
17980427 23 17555994910871921315
1813 80 17762903160507565887
18186145 218 17845668047957907460
19141452 34 12035719930012602837
200 152 13686034110819608700
20510252 161 17977390756467818067
20671657 1 18340767018633693491
212916 134 18266161998003797232
21524375 3 18413390951158826926
21864079 5 17845663521553248121
2255824 54 18264490572747446367
22849341 161 17621334441456259963
235170 7 16056605395109129813
23557571 272 17986115334147641591
283562 15 18048039854863062539
341906 21 18269548502397219488
4028521 119 17988926686701430061
469060 322 18118138080936265715
474 4 18333733515727948039
5252454 2 18127146185965785113
5281201 14 16630259077046958804
57527295 17 17916330293384851510
5895379 119 16771273470427805929
633830 44 18342189859620458276
67856867 119 18269540664329570755
7615 1 18128245693608933439
81228 2 17618233139992585242
84936 182 18343302526659046266
9981440 41 18338221773880194771

>  <PUBCHEM_SHAPE_MULTIPOLES>  (1) 
408.48
8.79
3.7
1.8
3.6
5.72
0.25
-7.02
-0.2
-2.96
2.19
-0.63
-0.88
-1.34

>  <PUBCHEM_SHAPE_SELFOVERLAP>  (1) 
843.656

>  <PUBCHEM_SHAPE_VOLUME>  (1) 
235.5

>  <PUBCHEM_COORDINATE_TYPE>  (1) 
2
5
10

$$$$
