49445
     RDKit          3D

 22 23  0  0  0  0  0  0  0  0999 V2000
   -0.6865   -0.7587   -0.2456 O   0  0  0  0  0  0  0  0  0  0  0  0
    3.0741    2.1536   -0.1710 O   0  0  0  0  0  0  0  0  0  0  0  0
   -3.2352    2.3240    0.4831 O   0  0  0  0  0  0  0  0  0  0  0  0
    1.7283   -1.6378    0.3554 N   0  0  0  0  0  0  0  0  0  0  0  0
    2.0688   -0.4830   -0.4745 C   0  0  0  0  0  0  0  0  0  0  0  0
    1.1767    0.6877   -0.2088 C   0  0  0  0  0  0  0  0  0  0  0  0
   -0.2037    0.5129   -0.1005 C   0  0  0  0  0  0  0  0  0  0  0  0
   -1.0258    1.6058    0.1473 C   0  0  0  0  0  0  0  0  0  0  0  0
    1.8518   -1.3024    1.7736 C   0  0  0  0  0  0  0  0  0  0  0  0
    2.5839   -2.7763    0.0230 C   0  0  0  0  0  0  0  0  0  0  0  0
    1.7289    1.9610   -0.0687 C   0  0  0  0  0  0  0  0  0  0  0  0
   -2.0539   -0.9763   -0.1505 C   0  0  0  0  0  0  0  0  0  0  0  0
   -2.9635   -0.0074    0.0801 C   0  0  0  0  0  0  0  0  0  0  0  0
   -2.4751    1.3910    0.2561 C   0  0  0  0  0  0  0  0  0  0  0  0
   -0.4774    2.8836    0.2888 C   0  0  0  0  0  0  0  0  0  0  0  0
    0.9028    3.0573    0.1796 C   0  0  0  0  0  0  0  0  0  0  0  0
   -2.3910   -2.4307   -0.3122 C   0  0  0  0  0  0  0  0  0  0  0  0
    1.5014   -2.4918    2.6516 C   0  0  0  0  0  0  0  0  0  0  0  0
    2.4222   -3.1780   -1.4332 C   0  0  0  0  0  0  0  0  0  0  0  0
   -4.4513   -0.1882    0.1564 C   0  0  0  0  0  0  0  0  0  0  0  0
   -2.6667   -2.7822   -1.7603 C   0  0  0  0  0  0  0  0  0  0  0  0
    3.5911    2.4357   -1.4697 C   0  0  0  0  0  0  0  0  0  0  0  0
  1  7  1  0
  1 12  1  0
  2 11  1  0
  2 22  1  0
  3 14  2  0
  4  5  1  0
  4  9  1  0
  4 10  1  0
  5  6  1  0
  6  7  2  0
  6 11  1  0
  7  8  1  0
  8 14  1  0
  8 15  2  0
  9 18  1  0
 10 19  1  0
 11 16  2  0
 12 13  2  0
 12 17  1  0
 13 14  1  0
 13 20  1  0
 15 16  1  0
 17 21  1  0
M  END
>  <PUBCHEM_COMPOUND_CID>  (1) 
49445

>  <PUBCHEM_CONFORMER_RMSD>  (1) 
0.8

>  <PUBCHEM_CONFORMER_DIVERSEORDER>  (1) 
1
7
3
4
2
6
11
9
10
5
8

>  <PUBCHEM_MMFF94_PARTIAL_CHARGES>  (1) 
21
1 -0.16
10 0.27
11 0.08
12 -0.06
13 -0.12
14 0.47
15 -0.15
16 -0.15
17 0.14
2 -0.36
20 0.14
22 0.28
29 0.15
3 -0.57
30 0.15
4 -0.81
5 0.41
6 -0.14
7 0.08
8 0.09
9 0.27

>  <PUBCHEM_EFFECTIVE_ROTOR_COUNT>  (1) 
6

>  <PUBCHEM_PHARMACOPHORE_FEATURES>  (1) 
7
1 1 acceptor
1 2 acceptor
1 21 hydrophobe
1 3 acceptor
1 4 cation
6 1 7 8 12 13 14 rings
6 6 7 8 11 15 16 rings

>  <PUBCHEM_HEAVY_ATOM_COUNT>  (1) 
22

>  <PUBCHEM_ATOM_DEF_STEREO_COUNT>  (1) 
0

>  <PUBCHEM_ATOM_UDEF_STEREO_COUNT>  (1) 
0

>  <PUBCHEM_BOND_DEF_STEREO_COUNT>  (1) 
0

>  <PUBCHEM_BOND_UDEF_STEREO_COUNT>  (1) 
0

>  <PUBCHEM_ISOTOPIC_ATOM_COUNT>  (1) 
0

>  <PUBCHEM_COMPONENT_COUNT>  (1) 
1

>  <PUBCHEM_CACTVS_TAUTO_COUNT>  (1) 
3

>  <PUBCHEM_CONFORMER_ID>  (1) 
0000C12500000001

>  <PUBCHEM_MMFF94_ENERGY>  (1) 
61.7138

>  <PUBCHEM_FEATURE_SELFOVERLAP>  (1) 
35.548

>  <PUBCHEM_SHAPE_FINGERPRINT>  (1) 
10967382 1 18412266155248489661
11578080 2 16055472993037908971
12553582 1 18340199700535080007
13140716 1 17909553097016695913
14022347 108 17832152618974677778
14178342 30 18269542996011873561
14790565 3 17834132101136114613
15042514 8 17256249241962918650
15209289 33 18050857915722387052
15375462 175 17330553142614546874
16752209 62 17615401463801011021
16945 1 18269556203289366441
19591789 44 17691693702245491687
20510252 161 17479729421399332192
20600515 1 17695630645832312212
20645477 70 18408601461908438599
20739085 24 17978543882600235529
20905425 154 18341618139270030196
21197605 99 15236675749967284947
21421861 104 18333728018227883833
21524375 3 17901656400083907838
21634736 98 18336557010307191990
23184049 29 18265608780172156912
2334 1 18411983525168507217
23366157 5 18041570152303531548
23419403 2 16896162752756955979
23559900 14 18127407860799447212
2748010 2 16465589262461966413
2871803 45 17836358625082269079
34934 24 18341331205732647589
352729 6 18052538764586521449
43471831 8 18265612267943953576
7364860 26 18412547608824021956
81228 2 17689695486001478298

>  <PUBCHEM_SHAPE_MULTIPOLES>  (1) 
430.16
5.89
4.56
1.48
3.15
0.5
0.59
0.18
-1.19
-2.28
-0.5
-0.95
1.49
-1.73

>  <PUBCHEM_SHAPE_SELFOVERLAP>  (1) 
899.196

>  <PUBCHEM_SHAPE_VOLUME>  (1) 
246

>  <PUBCHEM_COORDINATE_TYPE>  (1) 
2
5
10

$$$$
