49447
     RDKit          3D

 19 20  0  0  0  0  0  0  0  0999 V2000
   -0.1354   -1.1660   -0.4209 O   0  0  0  0  0  0  0  0  0  0  0  0
    0.7628    3.5066   -0.3052 O   0  0  0  0  0  0  0  0  0  0  0  0
   -4.0851   -0.5644    0.3812 O   0  0  0  0  0  0  0  0  0  0  0  0
    2.2682   -0.2333    0.1480 N   0  0  0  0  0  0  0  0  0  0  0  0
    1.7445    0.8681   -0.6591 C   0  0  0  0  0  0  0  0  0  0  0  0
    0.3068    1.1533   -0.3628 C   0  0  0  0  0  0  0  0  0  0  0  0
    2.1663    0.0830    1.5722 C   0  0  0  0  0  0  0  0  0  0  0  0
    3.6563   -0.5175   -0.2144 C   0  0  0  0  0  0  0  0  0  0  0  0
   -0.6118    0.1094   -0.2493 C   0  0  0  0  0  0  0  0  0  0  0  0
   -1.9500    0.3865    0.0274 C   0  0  0  0  0  0  0  0  0  0  0  0
   -0.1180    2.4721   -0.1987 C   0  0  0  0  0  0  0  0  0  0  0  0
    2.7029   -1.0437    2.4306 C   0  0  0  0  0  0  0  0  0  0  0  0
    3.7803   -0.9079   -1.6727 C   0  0  0  0  0  0  0  0  0  0  0  0
   -2.3793    1.7055    0.1924 C   0  0  0  0  0  0  0  0  0  0  0  0
   -1.4580    2.7473    0.0783 C   0  0  0  0  0  0  0  0  0  0  0  0
   -2.8976   -0.7331    0.1415 C   0  0  0  0  0  0  0  0  0  0  0  0
   -1.0264   -2.2218   -0.3145 C   0  0  0  0  0  0  0  0  0  0  0  0
   -2.3344   -2.0832   -0.0525 C   0  0  0  0  0  0  0  0  0  0  0  0
   -0.3920   -3.5609   -0.5215 C   0  0  0  0  0  0  0  0  0  0  0  0
  1  9  1  0
  1 17  1  0
  2 11  1  0
  3 16  2  0
  4  5  1  0
  4  7  1  0
  4  8  1  0
  5  6  1  0
  6  9  2  0
  6 11  1  0
  7 12  1  0
  8 13  1  0
  9 10  1  0
 10 14  2  0
 10 16  1  0
 11 15  2  0
 14 15  1  0
 16 18  1  0
 17 18  2  0
 17 19  1  0
M  END
>  <PUBCHEM_COMPOUND_CID>  (1) 
49447

>  <PUBCHEM_CONFORMER_RMSD>  (1) 
0.6

>  <PUBCHEM_CONFORMER_DIVERSEORDER>  (1) 
1
2
4
3
9
5
6
7
8

>  <PUBCHEM_MMFF94_PARTIAL_CHARGES>  (1) 
21
1 -0.16
10 0.09
11 0.08
14 -0.15
15 -0.15
16 0.47
17 -0.06
18 -0.14
19 0.14
2 -0.53
3 -0.57
32 0.15
33 0.15
34 0.15
38 0.45
4 -0.81
5 0.41
6 -0.14
7 0.27
8 0.27
9 0.08

>  <PUBCHEM_EFFECTIVE_ROTOR_COUNT>  (1) 
4

>  <PUBCHEM_PHARMACOPHORE_FEATURES>  (1) 
6
1 1 acceptor
1 2 donor
1 3 acceptor
1 4 cation
6 1 9 10 16 17 18 rings
6 6 9 10 11 14 15 rings

>  <PUBCHEM_HEAVY_ATOM_COUNT>  (1) 
19

>  <PUBCHEM_ATOM_DEF_STEREO_COUNT>  (1) 
0

>  <PUBCHEM_ATOM_UDEF_STEREO_COUNT>  (1) 
0

>  <PUBCHEM_BOND_DEF_STEREO_COUNT>  (1) 
0

>  <PUBCHEM_BOND_UDEF_STEREO_COUNT>  (1) 
0

>  <PUBCHEM_ISOTOPIC_ATOM_COUNT>  (1) 
0

>  <PUBCHEM_COMPONENT_COUNT>  (1) 
1

>  <PUBCHEM_CACTVS_TAUTO_COUNT>  (1) 
14

>  <PUBCHEM_CONFORMER_ID>  (1) 
0000C12700000001

>  <PUBCHEM_MMFF94_ENERGY>  (1) 
47.0904

>  <PUBCHEM_FEATURE_SELFOVERLAP>  (1) 
30.474

>  <PUBCHEM_SHAPE_FINGERPRINT>  (1) 
10967382 1 17907583875764178973
12553582 1 18336541702648194499
12633257 1 17843371168331138186
12716301 132 18197771112088466674
13140716 1 18267595782984177611
13538477 17 18042679503801524976
14022347 108 18335991929659634042
14251745 187 18128261073549412022
14790565 3 18267327390156870013
15375462 175 18338798897177907442
15375462 189 18041554853297434778
16110190 28 17108723386552194050
16752209 62 18336820910098067567
16945 1 18410849980092829015
17804303 29 18271815596404316308
19049666 15 17702663216618722186
19591789 44 18196384614830423367
20028762 73 17986680470810116279
20510252 161 18272373035846443616
20600515 1 18270105924553300520
20645477 70 17905322180610159559
20739085 24 18119560806107287801
20905425 154 17910683068009216359
21421861 104 17398946562708639387
22112679 90 18114171987554320696
23184049 29 18194394722037525719
2334 1 17834957847178902343
23419403 2 16402742741027610911
23557571 272 18272379672435955796
23559900 14 18271250409611795156
23598294 1 18335984160179678000
2748010 2 18123757444105008263
3286 77 16702305645755715839
34934 24 18122626316653546500
350125 39 17042617409630323341
43471831 8 18264775346068902407
465052 167 18115039601282260275
589210 1 17690845978912325711
7364860 26 17908991254726720484
77492 1 17604436189272541220
81228 2 18270382971260291266
90525 40 18335424504371259374

>  <PUBCHEM_SHAPE_MULTIPOLES>  (1) 
368.42
5.41
3.58
1.3
1.9
0.27
0.7
-1.58
0.19
-1.69
-0.65
1.81
-0.41
-0.17

>  <PUBCHEM_SHAPE_SELFOVERLAP>  (1) 
779.517

>  <PUBCHEM_SHAPE_VOLUME>  (1) 
207.5

>  <PUBCHEM_COORDINATE_TYPE>  (1) 
2
5
10

$$$$
