49459
     RDKit          3D

 24 26  0  0  0  0  0  0  0  0999 V2000
   -0.4648   -0.5598   -0.5856 O   0  0  0  0  0  0  0  0  0  0  0  0
    2.6084    3.0299   -0.0387 O   0  0  0  0  0  0  0  0  0  0  0  0
   -3.5540    1.7296    0.7354 O   0  0  0  0  0  0  0  0  0  0  0  0
    2.1088   -0.9940   -0.1938 N   0  0  0  0  0  0  0  0  0  0  0  0
    3.1533   -1.8581   -0.7614 C   0  0  0  0  0  0  0  0  0  0  0  0
    2.2376   -0.8940    1.2668 C   0  0  0  0  0  0  0  0  0  0  0  0
    3.0857   -3.2668   -0.1694 C   0  0  0  0  0  0  0  0  0  0  0  0
    2.1400   -2.2712    1.9251 C   0  0  0  0  0  0  0  0  0  0  0  0
    3.1738   -3.2339    1.3522 C   0  0  0  0  0  0  0  0  0  0  0  0
    2.1569    0.3346   -0.8037 C   0  0  0  0  0  0  0  0  0  0  0  0
    1.0571    1.2222   -0.3141 C   0  0  0  0  0  0  0  0  0  0  0  0
   -0.2490    0.7400   -0.2179 C   0  0  0  0  0  0  0  0  0  0  0  0
    1.3400    2.5393    0.0479 C   0  0  0  0  0  0  0  0  0  0  0  0
   -1.2652    1.5709    0.2388 C   0  0  0  0  0  0  0  0  0  0  0  0
   -2.8270   -0.3819   -0.0919 C   0  0  0  0  0  0  0  0  0  0  0  0
   -1.7501   -1.0779   -0.5103 C   0  0  0  0  0  0  0  0  0  0  0  0
   -2.6303    1.0355    0.3294 C   0  0  0  0  0  0  0  0  0  0  0  0
    0.3192    3.3725    0.5057 C   0  0  0  0  0  0  0  0  0  0  0  0
   -0.9870    2.8913    0.6030 C   0  0  0  0  0  0  0  0  0  0  0  0
   -4.2385   -0.8873   -0.0264 C   0  0  0  0  0  0  0  0  0  0  0  0
   -1.7864   -2.5194   -0.9301 C   0  0  0  0  0  0  0  0  0  0  0  0
   -4.5512   -1.4994    1.3245 C   0  0  0  0  0  0  0  0  0  0  0  0
   -2.0615   -2.6618   -2.4135 C   0  0  0  0  0  0  0  0  0  0  0  0
    2.9842    3.6396   -1.2718 C   0  0  0  0  0  0  0  0  0  0  0  0
  1 12  1  0
  1 16  1  0
  2 13  1  0
  2 24  1  0
  3 17  2  0
  4  5  1  0
  4  6  1  0
  4 10  1  0
  5  7  1  0
  6  8  1  0
  7  9  1  0
  8  9  1  0
 10 11  1  0
 11 12  2  0
 11 13  1  0
 12 14  1  0
 13 18  2  0
 14 17  1  0
 14 19  2  0
 15 16  2  0
 15 17  1  0
 15 20  1  0
 16 21  1  0
 18 19  1  0
 20 22  1  0
 21 23  1  0
M  END
>  <PUBCHEM_COMPOUND_CID>  (1) 
49459

>  <PUBCHEM_CONFORMER_RMSD>  (1) 
0.8

>  <PUBCHEM_CONFORMER_DIVERSEORDER>  (1) 
1
4
5
3
10
2
15
11
8
14
9
7
12
16
13
6

>  <PUBCHEM_MMFF94_PARTIAL_CHARGES>  (1) 
21
1 -0.16
10 0.41
11 -0.14
12 0.08
13 0.08
14 0.09
15 -0.12
16 -0.06
17 0.47
18 -0.15
19 -0.15
2 -0.36
20 0.14
21 0.14
24 0.28
3 -0.57
37 0.15
38 0.15
4 -0.81
5 0.27
6 0.27

>  <PUBCHEM_EFFECTIVE_ROTOR_COUNT>  (1) 
6.2

>  <PUBCHEM_PHARMACOPHORE_FEATURES>  (1) 
9
1 1 acceptor
1 2 acceptor
1 22 hydrophobe
1 23 hydrophobe
1 3 acceptor
1 4 cation
6 1 12 14 15 16 17 rings
6 11 12 13 14 18 19 rings
6 4 5 6 7 8 9 rings

>  <PUBCHEM_HEAVY_ATOM_COUNT>  (1) 
24

>  <PUBCHEM_ATOM_DEF_STEREO_COUNT>  (1) 
0

>  <PUBCHEM_ATOM_UDEF_STEREO_COUNT>  (1) 
0

>  <PUBCHEM_BOND_DEF_STEREO_COUNT>  (1) 
0

>  <PUBCHEM_BOND_UDEF_STEREO_COUNT>  (1) 
0

>  <PUBCHEM_ISOTOPIC_ATOM_COUNT>  (1) 
0

>  <PUBCHEM_COMPONENT_COUNT>  (1) 
1

>  <PUBCHEM_CACTVS_TAUTO_COUNT>  (1) 
3

>  <PUBCHEM_CONFORMER_ID>  (1) 
0000C13300000001

>  <PUBCHEM_MMFF94_ENERGY>  (1) 
55.9317

>  <PUBCHEM_FEATURE_SELFOVERLAP>  (1) 
45.699

>  <PUBCHEM_SHAPE_FINGERPRINT>  (1) 
10119406 146 17906181999278541860
108634 29 15817888557534105598
10967382 1 18270405030460594309
11578080 2 17677319516485284476
12403259 327 15985094215479797419
12553582 1 18341043051897610798
12788726 201 17539703399965008146
13004483 165 17976516357113719970
13140716 1 17622727944001512193
13583140 156 18120096341310741211
14022347 108 17979936920381112630
14178342 30 17769642432545949761
14787075 74 18187379709662782942
15042514 8 17689440386408551706
16752209 62 17760634885124570485
16945 1 18055914544335127789
19319366 153 18119823657303475583
19591789 44 17402899315299111263
20291156 8 18190744137269877546
20567600 347 18045222893144990112
20600515 1 17912650099081021572
21033648 29 17415542243109427955
21421861 104 18336828688115146225
229495 10 18261938748230143933
23184049 29 18339357461785265720
2334 1 18343027709377919045
23366157 5 18259993681700476916
23419403 2 16828326205448941126
23559900 14 18272090439840973092
23598288 3 17974842874572925934
2748010 2 16971973787967539701
34934 24 18055921137077973525
352729 6 17909835336117659997
465052 167 18118422652447253129
5265222 85 17696753251943305966
58807428 26 17838046366477415705
7097593 13 18412258458693520923
7364860 26 18340207496111374372
81228 2 17906989821583759880
90316 7 17831859045380919520

>  <PUBCHEM_SHAPE_MULTIPOLES>  (1) 
471.32
6.71
5.1
1.49
3.91
1.83
0.18
-3.75
-1.09
-4.31
0.21
-0.03
-1.2
-2.12

>  <PUBCHEM_SHAPE_SELFOVERLAP>  (1) 
997.442

>  <PUBCHEM_SHAPE_VOLUME>  (1) 
264.8

>  <PUBCHEM_COORDINATE_TYPE>  (1) 
2
5
10

$$$$
