49508
     RDKit          3D

 17 17  0  0  0  0  0  0  0  0999 V2000
    3.3244   -0.0002    0.2494 O   0  0  0  0  0  0  0  0  0  0  0  0
    1.9628    2.3942   -0.0380 O   0  0  0  0  0  0  0  0  0  0  0  0
    1.9623   -2.3950   -0.0382 O   0  0  0  0  0  0  0  0  0  0  0  0
   -2.9375    0.0002    0.2986 O   0  0  0  0  0  0  0  0  0  0  0  0
   -4.9083    0.0002   -0.8914 O   0  0  0  0  0  0  0  0  0  0  0  0
   -4.9019    0.0006    1.4079 N   0  0  0  0  0  0  0  0  0  0  0  0
   -0.7391   -0.0001   -0.6089 C   0  0  0  0  0  0  0  0  0  0  0  0
    1.9908   -0.0002   -0.0343 C   0  0  0  0  0  0  0  0  0  0  0  0
    1.3083    1.2077   -0.1779 C   0  0  0  0  0  0  0  0  0  0  0  0
    1.3083   -1.2081   -0.1780 C   0  0  0  0  0  0  0  0  0  0  0  0
   -0.0567    1.2079   -0.4651 C   0  0  0  0  0  0  0  0  0  0  0  0
   -0.0567   -1.2082   -0.4653 C   0  0  0  0  0  0  0  0  0  0  0  0
   -2.1983    0.0000   -0.9167 C   0  0  0  0  0  0  0  0  0  0  0  0
    4.2216    0.0015   -0.8585 C   0  0  0  0  0  0  0  0  0  0  0  0
    2.0107    2.9576    1.2714 C   0  0  0  0  0  0  0  0  0  0  0  0
    2.0097   -2.9585    1.2712 C   0  0  0  0  0  0  0  0  0  0  0  0
   -4.3004    0.0003    0.1737 C   0  0  0  0  0  0  0  0  0  0  0  0
  1  8  1  0
  1 14  1  0
  2  9  1  0
  2 15  1  0
  3 10  1  0
  3 16  1  0
  4 13  1  0
  4 17  1  0
  5 17  2  0
  6 17  1  0
  7 11  2  0
  7 12  1  0
  7 13  1  0
  8  9  2  0
  8 10  1  0
  9 11  1  0
 10 12  2  0
M  END
>  <PUBCHEM_COMPOUND_CID>  (1) 
49508

>  <PUBCHEM_CONFORMER_RMSD>  (1) 
0.8

>  <PUBCHEM_CONFORMER_DIVERSEORDER>  (1) 
1
14
11
6
4
7
8
12
5
13
2
10
9
3

>  <PUBCHEM_MMFF94_PARTIAL_CHARGES>  (1) 
21
1 -0.36
10 0.08
11 -0.15
12 -0.15
13 0.42
14 0.28
15 0.28
16 0.28
17 0.78
18 0.15
19 0.15
2 -0.36
3 -0.36
31 0.37
32 0.37
4 -0.43
5 -0.57
6 -0.8
7 -0.14
8 0.08
9 0.08

>  <PUBCHEM_EFFECTIVE_ROTOR_COUNT>  (1) 
6

>  <PUBCHEM_PHARMACOPHORE_FEATURES>  (1) 
6
1 1 acceptor
1 2 acceptor
1 3 acceptor
1 5 acceptor
1 6 donor
6 7 8 9 10 11 12 rings

>  <PUBCHEM_HEAVY_ATOM_COUNT>  (1) 
17

>  <PUBCHEM_ATOM_DEF_STEREO_COUNT>  (1) 
0

>  <PUBCHEM_ATOM_UDEF_STEREO_COUNT>  (1) 
0

>  <PUBCHEM_BOND_DEF_STEREO_COUNT>  (1) 
0

>  <PUBCHEM_BOND_UDEF_STEREO_COUNT>  (1) 
0

>  <PUBCHEM_ISOTOPIC_ATOM_COUNT>  (1) 
0

>  <PUBCHEM_COMPONENT_COUNT>  (1) 
1

>  <PUBCHEM_CACTVS_TAUTO_COUNT>  (1) 
2

>  <PUBCHEM_CONFORMER_ID>  (1) 
0000C16400000001

>  <PUBCHEM_MMFF94_ENERGY>  (1) 
70.922

>  <PUBCHEM_FEATURE_SELFOVERLAP>  (1) 
30.457

>  <PUBCHEM_SHAPE_FINGERPRINT>  (1) 
10366900 7 18261396663174916481
10980938 120 18413106139098035199
11471102 20 18410570695232895932
12236239 1 17704351078915966165
12251169 10 18413390934443051287
12644460 14 18408604738372659459
13140716 1 18266167525631891040
13380536 305 18338516451828835852
13533116 47 18334857187390977883
14252887 29 17894638032622204243
15048467 5 15985101921225275434
15375462 189 18410569557061534374
15490181 8 17545870985918796220
16945 1 18338780274278697126
18186145 218 18342452698702487837
19784866 140 18267595602527375942
20645477 70 18263071133664573999
21041028 32 18124310515317169970
21524375 3 17984694777698447533
2255824 54 18339358664486839532
22854114 111 18342175609140626101
2334 1 17905316678540197412
23402539 116 13686296838237639657
23558518 356 17834104626240371662
23559900 14 17313380067989694407
23598291 2 17845361310126182101
2748010 2 18047746289594773934
3060560 45 18060419101555381886
31174 14 18408599236788351191
33824 294 18333730225778036307
474 4 18199177580481187097
58807428 26 18122598786498560168
7364860 26 18343298176036419380
81228 2 16969967179030245886
9981440 41 16765612467804778048
9999458 23 18335422412890965828

>  <PUBCHEM_SHAPE_MULTIPOLES>  (1) 
315.52
7.89
2.64
1.1
11.07
0
0.26
0
0.57
-3.44
1.32
0.2
0
0

>  <PUBCHEM_SHAPE_SELFOVERLAP>  (1) 
646.857

>  <PUBCHEM_SHAPE_VOLUME>  (1) 
182.9

>  <PUBCHEM_COORDINATE_TYPE>  (1) 
2
5
10

$$$$
