49505
     RDKit          3D

 20 22  0  0  0  0  0  0  0  0999 V2000
    0.2585    1.0719   -0.6478 O   0  0  0  0  0  0  0  0  0  0  0  0
    0.2284   -3.6774   -0.3367 O   0  0  0  0  0  0  0  0  0  0  0  0
    4.0677    1.2771    0.7847 O   0  0  0  0  0  0  0  0  0  0  0  0
   -1.9927   -0.2825   -0.3849 N   0  0  0  0  0  0  0  0  0  0  0  0
   -2.0675   -0.5150    1.0643 C   0  0  0  0  0  0  0  0  0  0  0  0
   -3.3315   -0.2709   -0.9910 C   0  0  0  0  0  0  0  0  0  0  0  0
   -2.9041    0.5640    1.7540 C   0  0  0  0  0  0  0  0  0  0  0  0
   -4.2095    0.8158   -0.3685 C   0  0  0  0  0  0  0  0  0  0  0  0
   -4.2985    0.6577    1.1451 C   0  0  0  0  0  0  0  0  0  0  0  0
   -1.1512   -1.2947   -1.0227 C   0  0  0  0  0  0  0  0  0  0  0  0
    0.2469   -1.2847   -0.4922 C   0  0  0  0  0  0  0  0  0  0  0  0
    0.9270   -0.0795   -0.3154 C   0  0  0  0  0  0  0  0  0  0  0  0
    0.8747   -2.4889   -0.1720 C   0  0  0  0  0  0  0  0  0  0  0  0
    2.2303   -0.0815    0.1800 C   0  0  0  0  0  0  0  0  0  0  0  0
    2.1793   -2.4887    0.3239 C   0  0  0  0  0  0  0  0  0  0  0  0
    2.8623   -1.2849    0.5018 C   0  0  0  0  0  0  0  0  0  0  0  0
    2.9244    1.2035    0.3563 C   0  0  0  0  0  0  0  0  0  0  0  0
    0.9108    2.2831   -0.4832 C   0  0  0  0  0  0  0  0  0  0  0  0
    2.1616    2.4104   -0.0167 C   0  0  0  0  0  0  0  0  0  0  0  0
    0.0830    3.4650   -0.8791 C   0  0  0  0  0  0  0  0  0  0  0  0
  1 12  1  0
  1 18  1  0
  2 13  1  0
  3 17  2  0
  4  5  1  0
  4  6  1  0
  4 10  1  0
  5  7  1  0
  6  8  1  0
  7  9  1  0
  8  9  1  0
 10 11  1  0
 11 12  2  0
 11 13  1  0
 12 14  1  0
 13 15  2  0
 14 16  2  0
 14 17  1  0
 15 16  1  0
 17 19  1  0
 18 19  2  0
 18 20  1  0
M  END
>  <PUBCHEM_COMPOUND_CID>  (1) 
49505

>  <PUBCHEM_CONFORMER_RMSD>  (1) 
0.6

>  <PUBCHEM_CONFORMER_DIVERSEORDER>  (1) 
1
7
3
8
6
5
9
4
10
2

>  <PUBCHEM_MMFF94_PARTIAL_CHARGES>  (1) 
21
1 -0.16
10 0.41
11 -0.14
12 0.08
13 0.08
14 0.09
15 -0.15
16 -0.15
17 0.47
18 -0.06
19 -0.14
2 -0.53
20 0.14
3 -0.57
33 0.15
34 0.15
35 0.15
36 0.45
4 -0.81
5 0.27
6 0.27

>  <PUBCHEM_EFFECTIVE_ROTOR_COUNT>  (1) 
3.2

>  <PUBCHEM_PHARMACOPHORE_FEATURES>  (1) 
7
1 1 acceptor
1 2 donor
1 3 acceptor
1 4 cation
6 1 12 14 17 18 19 rings
6 11 12 13 14 15 16 rings
6 4 5 6 7 8 9 rings

>  <PUBCHEM_HEAVY_ATOM_COUNT>  (1) 
20

>  <PUBCHEM_ATOM_DEF_STEREO_COUNT>  (1) 
0

>  <PUBCHEM_ATOM_UDEF_STEREO_COUNT>  (1) 
0

>  <PUBCHEM_BOND_DEF_STEREO_COUNT>  (1) 
0

>  <PUBCHEM_BOND_UDEF_STEREO_COUNT>  (1) 
0

>  <PUBCHEM_ISOTOPIC_ATOM_COUNT>  (1) 
0

>  <PUBCHEM_COMPONENT_COUNT>  (1) 
1

>  <PUBCHEM_CACTVS_TAUTO_COUNT>  (1) 
14

>  <PUBCHEM_CONFORMER_ID>  (1) 
0000C16100000001

>  <PUBCHEM_MMFF94_ENERGY>  (1) 
42.6343

>  <PUBCHEM_FEATURE_SELFOVERLAP>  (1) 
35.55

>  <PUBCHEM_SHAPE_FINGERPRINT>  (1) 
10382601 240 18411143502479172530
104564 63 18049733918612462396
10493431 412 18267581497712227224
10967382 1 18409718578364463942
10980938 120 18409445890595448206
11244481 83 15937554712844159301
11640471 11 17846228751965251545
11725454 13 16953337353755382775
12403259 327 16877933979898529897
12553582 1 18194120707398597878
12633257 1 17750249143529269241
13009979 54 17846214398010916563
13134695 92 18261672558551227311
13140716 1 18409442592388301186
13965767 371 17771929154886827921
14178342 30 17834659871101396960
14790565 3 18263934392000353844
14844126 61 16893684165944390107
15209294 21 18059846320669674608
15309172 13 18337672026328900613
15420108 30 18201147785011390103
16945 1 18267299837798760702
17357779 13 18120088377654930149
1813 80 17698176049331258414
18219364 16 18261666069230339005
19049666 15 17678170491308594005
19591789 44 18267867186367918126
20157964 124 18411416169163929981
20510252 161 17042604791116017356
20715895 44 17553490181125798017
20739085 24 18335992969337151236
21524375 3 18128822030574457503
21665062 11 18409173203101063873
22149856 69 16126428619702909337
22182313 1 18193258716769085028
23184049 59 18411418401502211012
2334 1 18338792446121464654
23419403 2 17607218997104325422
23557571 272 14620794938196966733
23558518 356 17759800742784183322
23598291 2 18059285488029596367
2748010 2 18192976142148936284
3472631 163 16343991286728539169
350125 39 17832148594589976984
352729 6 17690557906760704342
4409770 3 15319730981918554471
474 4 18412262865414083451
54173680 148 16897362015253941302
6992083 37 18046617090995143052
77492 1 17846490414199881287
7832392 63 18340764952843867742
81228 2 17467642498411832805
8272917 22 18340209600824632535

>  <PUBCHEM_SHAPE_MULTIPOLES>  (1) 
389
6.41
3.52
1.15
4.85
0.03
-0.25
1.56
-1.99
-2.62
0.82
0.94
0.13
-0.21

>  <PUBCHEM_SHAPE_SELFOVERLAP>  (1) 
838.211

>  <PUBCHEM_SHAPE_VOLUME>  (1) 
213.6

>  <PUBCHEM_COORDINATE_TYPE>  (1) 
2
5
10

$$$$
