49516
     RDKit          3D

 20 21  0  0  0  0  0  0  0  0999 V2000
    1.1193    0.4873    0.0177 O   0  0  0  0  0  0  0  0  0  0  0  0
    2.3231   -1.4052   -0.4289 O   0  0  0  0  0  0  0  0  0  0  0  0
   -3.7001    0.9335   -0.0878 N   0  0  0  0  0  0  0  0  0  0  0  0
    3.3580    0.6173    0.1361 N   0  0  0  0  0  0  0  0  0  0  0  0
   -4.9767    0.2754   -0.3589 C   0  0  0  0  0  0  0  0  0  0  0  0
   -6.1227    1.2832   -0.2180 C   0  0  0  0  0  0  0  0  0  0  0  0
   -5.1637   -0.9109    0.5934 C   0  0  0  0  0  0  0  0  0  0  0  0
   -7.4808    0.6133   -0.4197 C   0  0  0  0  0  0  0  0  0  0  0  0
   -6.5231   -1.5781    0.3913 C   0  0  0  0  0  0  0  0  0  0  0  0
   -7.6666   -0.5756    0.5188 C   0  0  0  0  0  0  0  0  0  0  0  0
   -2.5936    0.0057   -0.2654 C   0  0  0  0  0  0  0  0  0  0  0  0
   -1.2651    0.7120   -0.0146 C   0  0  0  0  0  0  0  0  0  0  0  0
   -0.0853   -0.2296   -0.2148 C   0  0  0  0  0  0  0  0  0  0  0  0
    2.2897   -0.2198   -0.1216 C   0  0  0  0  0  0  0  0  0  0  0  0
    4.7360    0.3041    0.1067 C   0  0  0  0  0  0  0  0  0  0  0  0
    5.6633    1.2920    0.3982 C   0  0  0  0  0  0  0  0  0  0  0  0
    5.1333   -0.9847   -0.2122 C   0  0  0  0  0  0  0  0  0  0  0  0
    7.0232    0.9831    0.3698 C   0  0  0  0  0  0  0  0  0  0  0  0
    6.4933   -1.2936   -0.2406 C   0  0  0  0  0  0  0  0  0  0  0  0
    7.4382   -0.3096    0.0505 C   0  0  0  0  0  0  0  0  0  0  0  0
  1 13  1  0
  1 14  1  0
  2 14  2  0
  3  5  1  0
  3 11  1  0
  4 14  1  0
  4 15  1  0
  5  6  1  0
  5  7  1  0
  6  8  1  0
  7  9  1  0
  8 10  1  0
  9 10  1  0
 11 12  1  0
 12 13  1  0
 15 16  2  0
 15 17  1  0
 16 18  1  0
 17 19  2  0
 18 20  2  0
 19 20  1  0
M  END
>  <PUBCHEM_COMPOUND_CID>  (1) 
49516

>  <PUBCHEM_CONFORMER_RMSD>  (1) 
0.8

>  <PUBCHEM_CONFORMER_DIVERSEORDER>  (1) 
1
175
7
227
168
377
13
271
90
385
188
394
322
154
263
277
4
316
290
345
49
343
352
179
169
189
294
166
93
319
177
86
333
106
315
326
101
325
47
350
323
42
370
242
145
180
387
364
19
321
115
301
195
208
219
246
121
61
194
158
389
29
70
369
357
356
392
201
89
207
10
170
284
268
222
36
173
196
213
99
339
308
198
276
50
261
31
334
288
151
69
127
293
303
38
285
278
136
341
159
35
367
100
363
8
34
216
215
238
96
351
40
172
178
281
296
331
52
130
270
384
51
218
109
291
122
142
269
244
202
28
395
211
313
110
204
156
347
77
376
260
164
62
14
382
258
241
186
361
117
380
133
252
353
297
391
298
141
251
344
309
98
128
279
224
111
181
274
265
340
3
267
65
174
280
240
184
155
67
16
94
235
165
318
383
131
48
108
113
348
386
146
243
161
41
82
255
368
83
149
365
239
171
176
129
73
148
228
78
372
237
185
11
232
183
20
330
43
358
88
56
97
362
84
75
203
37
123
192
150
21
305
320
112
307
25
190
80
355
95
6
337
33
349
247
378
295
306
273
5
259
66
327
317
199
74
388
24
314
310
160
79
249
163
32
162
231
300
312
71
23
220
292
30
286
206
46
375
393
354
366
132
124
85
157
153
26
139
209
134
135
125
272
374
248
167
64
226
57
264
53
197
107
379
381
116
214
59
63
200
18
338
289
119
39
114
27
55
328
144
283
137
360
390
103
311
230
15
371
104
138
397
299
81
329
346
205
60
91
182
45
254
275
210
212
335
187
234
302
54
256
191
87
359
44
12
221
266
396
17
287
2
126
253
68
223
262
250
22
257
342
92
147
217
102
236
140
282
72
324
229
225
373
304
233
76
9
143
336
332
58
105
152
193
120
118
245

>  <PUBCHEM_MMFF94_PARTIAL_CHARGES>  (1) 
21
1 -0.43
11 0.27
13 0.28
14 0.78
15 0.12
16 -0.15
17 -0.15
18 -0.15
19 -0.15
2 -0.57
20 -0.15
3 -0.9
32 0.36
39 0.37
4 -0.55
40 0.15
41 0.15
42 0.15
43 0.15
44 0.15
5 0.27

>  <PUBCHEM_EFFECTIVE_ROTOR_COUNT>  (1) 
9.2

>  <PUBCHEM_PHARMACOPHORE_FEATURES>  (1) 
6
1 2 acceptor
1 3 cation
1 3 donor
1 4 donor
6 15 16 17 18 19 20 rings
6 5 6 7 8 9 10 rings

>  <PUBCHEM_HEAVY_ATOM_COUNT>  (1) 
20

>  <PUBCHEM_ATOM_DEF_STEREO_COUNT>  (1) 
0

>  <PUBCHEM_ATOM_UDEF_STEREO_COUNT>  (1) 
0

>  <PUBCHEM_BOND_DEF_STEREO_COUNT>  (1) 
0

>  <PUBCHEM_BOND_UDEF_STEREO_COUNT>  (1) 
0

>  <PUBCHEM_ISOTOPIC_ATOM_COUNT>  (1) 
0

>  <PUBCHEM_COMPONENT_COUNT>  (1) 
1

>  <PUBCHEM_CACTVS_TAUTO_COUNT>  (1) 
2

>  <PUBCHEM_CONFORMER_ID>  (1) 
0000C16C00000001

>  <PUBCHEM_MMFF94_ENERGY>  (1) 
28.0113

>  <PUBCHEM_FEATURE_SELFOVERLAP>  (1) 
30.446

>  <PUBCHEM_SHAPE_FINGERPRINT>  (1) 
10066227 49 18341333275991929998
10299344 5 18413389838735702279
10638233 991 16056879164797980137
11315181 36 18342740720200952465
11524674 6 17489586779735213655
11719270 70 18342737399490119238
12091667 2 17775282760336443581
12516196 113 18260829297631468853
13533116 47 14117529697093316940
13885169 127 18334857195643386525
14123256 10 18410855455833194505
14170010 4 18341610439016316432
1420 363 18410858758668378399
14251732 16 18410292523080754465
14251764 18 13902190374515383341
14251764 46 18411136935110166698
14933364 13 18411418410118785708
15183329 4 15267344024088172962
15419008 47 18333723620245683013
15461852 350 8214138518304278737
15716309 27 18272651259901942295
15849732 13 18408322193954081365
17093844 174 18186801371232047129
20157964 124 18273215296983106438
20281389 69 17632573851215486648
21150785 3 16008751316357883822
21267235 1 18201442446391923532
21315763 28 18411418401523602337
22224240 67 17385441033819322114
23035841 295 17894348878354712083
232437 2 18412545419155812839
23521765 1 18341894090876392053
23559900 14 18338512053998849649
328311 84 18343587322194213294
33532 11 18187362091596671922
33684 2 18334574633939417829
4073 2 18114466755086002378
4325135 7 18259984881407056167
59682541 35 18272651294230188307
59755656 520 17386001801840368635
67123 10 18334295388013914564
8209 1 18409448080955065453

>  <PUBCHEM_SHAPE_MULTIPOLES>  (1) 
389.89
27.58
1.36
0.69
6.22
0.17
0.02
1.27
1.9
0.09
0.04
0.21
0.03
1.23

>  <PUBCHEM_SHAPE_SELFOVERLAP>  (1) 
790.659

>  <PUBCHEM_SHAPE_VOLUME>  (1) 
224.8

>  <PUBCHEM_COORDINATE_TYPE>  (1) 
2
5
10

$$$$
