49520
     RDKit          3D

 32 34  0  0  1  0  0  0  0  0999 V2000
    1.1583    0.8382    0.6584 O   0  0  0  0  0  0  0  0  0  0  0  0
    2.1799   -1.0982    1.3194 O   0  0  0  0  0  0  0  0  0  0  0  0
   -2.6136   -2.2849   -1.4818 N   0  0  0  0  0  0  0  0  0  0  0  0
    3.3109    0.5646    0.1209 N   0  0  0  0  0  0  0  0  0  0  0  0
   -1.2070    0.2150    0.1659 C   0  0  0  0  0  0  0  0  0  0  0  0
   -0.6607   -0.8649   -0.8612 C   0  0  0  0  0  0  0  0  0  0  0  0
   -0.0584    0.3901    1.2672 C   0  0  0  0  0  0  0  0  0  0  0  0
   -1.6014   -1.3576   -1.9917 C   0  0  0  0  0  0  0  0  0  0  0  0
   -2.5045   -0.3831    0.7958 C   0  0  0  0  0  0  0  0  0  0  0  0
   -1.4437    1.6188   -0.4694 C   0  0  0  0  0  0  0  0  0  0  0  0
   -0.3846    1.3169    2.4601 C   0  0  0  0  0  0  0  0  0  0  0  0
   -0.7957   -2.0774   -3.0775 C   0  0  0  0  0  0  0  0  0  0  0  0
   -2.4161   -1.2429    1.8907 C   0  0  0  0  0  0  0  0  0  0  0  0
   -0.6777    2.0287   -1.5607 C   0  0  0  0  0  0  0  0  0  0  0  0
   -3.7522   -0.0581    0.2633 C   0  0  0  0  0  0  0  0  0  0  0  0
   -2.4213    2.4653    0.0539 C   0  0  0  0  0  0  0  0  0  0  0  0
    0.7771    1.4105    3.4452 C   0  0  0  0  0  0  0  0  0  0  0  0
   -3.7833   -2.2942   -2.3583 C   0  0  0  0  0  0  0  0  0  0  0  0
   -2.0551   -3.6300   -1.3575 C   0  0  0  0  0  0  0  0  0  0  0  0
   -3.5754   -1.7774    2.4531 C   0  0  0  0  0  0  0  0  0  0  0  0
   -0.8894    3.2850   -2.1288 C   0  0  0  0  0  0  0  0  0  0  0  0
   -4.9113   -0.5925    0.8257 C   0  0  0  0  0  0  0  0  0  0  0  0
   -2.6330    3.7214   -0.5143 C   0  0  0  0  0  0  0  0  0  0  0  0
    2.2273   -0.0125    0.7543 C   0  0  0  0  0  0  0  0  0  0  0  0
   -4.8229   -1.4522    1.9205 C   0  0  0  0  0  0  0  0  0  0  0  0
   -1.8671    4.1313   -1.6055 C   0  0  0  0  0  0  0  0  0  0  0  0
    4.6156    0.0402   -0.0229 C   0  0  0  0  0  0  0  0  0  0  0  0
    4.9287   -1.2088    0.5134 C   0  0  0  0  0  0  0  0  0  0  0  0
    5.5905    0.7723   -0.7008 C   0  0  0  0  0  0  0  0  0  0  0  0
    6.2166   -1.7257    0.3717 C   0  0  0  0  0  0  0  0  0  0  0  0
    6.8783    0.2554   -0.8425 C   0  0  0  0  0  0  0  0  0  0  0  0
    7.1913   -0.9935   -0.3063 C   0  0  0  0  0  0  0  0  0  0  0  0
  1  7  1  0
  1 24  1  0
  2 24  2  0
  3  8  1  0
  3 18  1  0
  3 19  1  0
  4 24  1  0
  4 27  1  0
  5  6  1  0
  5  7  1  0
  5  9  1  0
  5 10  1  0
  6  8  1  0
  7 11  1  0
  8 12  1  0
  9 13  2  0
  9 15  1  0
 10 14  2  0
 10 16  1  0
 11 17  1  0
 13 20  1  0
 14 21  1  0
 15 22  2  0
 16 23  2  0
 20 25  2  0
 21 26  2  0
 22 25  1  0
 23 26  1  0
 27 28  2  0
 27 29  1  0
 28 30  1  0
 29 31  2  0
 30 32  2  0
 31 32  1  0
M  END
>  <PUBCHEM_COMPOUND_CID>  (1) 
49520

>  <PUBCHEM_CONFORMER_RMSD>  (1) 
1

>  <PUBCHEM_CONFORMER_DIVERSEORDER>  (1) 
2
7
53
67
16
10
8
63
30
23
59
57
42
11
17
55
48
39
12
18
21
26
64
19
61
45
46
5
51
29
35
38
56
25
66
44
4
31
13
9
32
1
54
22
14
52
49
62
33
58
60
50
47
28
65
36
34
20
37
43
24
27
41
6
40
15
68
3

>  <PUBCHEM_MMFF94_PARTIAL_CHARGES>  (1) 
44
1 -0.43
10 -0.14
13 -0.15
14 -0.15
15 -0.15
16 -0.15
18 0.27
19 0.27
2 -0.57
20 -0.15
21 -0.15
22 -0.15
23 -0.15
24 0.78
25 -0.15
26 -0.15
27 0.12
28 -0.15
29 -0.15
3 -0.81
30 -0.15
31 -0.15
32 -0.15
4 -0.55
42 0.15
43 0.15
44 0.15
45 0.15
5 0.29
55 0.15
56 0.15
57 0.15
58 0.15
59 0.15
60 0.15
61 0.37
62 0.15
63 0.15
64 0.15
65 0.15
66 0.15
7 0.28
8 0.27
9 -0.14

>  <PUBCHEM_EFFECTIVE_ROTOR_COUNT>  (1) 
11

>  <PUBCHEM_PHARMACOPHORE_FEATURES>  (1) 
7
1 17 hydrophobe
1 2 acceptor
1 3 cation
1 4 donor
6 10 14 16 21 23 26 rings
6 27 28 29 30 31 32 rings
6 9 13 15 20 22 25 rings

>  <PUBCHEM_HEAVY_ATOM_COUNT>  (1) 
32

>  <PUBCHEM_ATOM_DEF_STEREO_COUNT>  (1) 
0

>  <PUBCHEM_ATOM_UDEF_STEREO_COUNT>  (1) 
2

>  <PUBCHEM_BOND_DEF_STEREO_COUNT>  (1) 
0

>  <PUBCHEM_BOND_UDEF_STEREO_COUNT>  (1) 
0

>  <PUBCHEM_ISOTOPIC_ATOM_COUNT>  (1) 
0

>  <PUBCHEM_COMPONENT_COUNT>  (1) 
1

>  <PUBCHEM_CACTVS_TAUTO_COUNT>  (1) 
2

>  <PUBCHEM_CONFORMER_ID>  (1) 
0000C17000000002

>  <PUBCHEM_MMFF94_ENERGY>  (1) 
119.8925

>  <PUBCHEM_FEATURE_SELFOVERLAP>  (1) 
35.521

>  <PUBCHEM_SHAPE_FINGERPRINT>  (1) 
10165383 225 18129660773543113657
107951 10 17899695661524208729
11477941 20 18259986002995466444
11524674 6 16988846068377894671
11578080 2 17343244943311080137
12082328 90 18041286470636952942
12160290 23 17900223513174465081
12422481 6 18200892715535729199
12597179 24 18050568439733378373
12633257 1 17346329244397118576
12788726 201 18042385977104539633
14713325 29 18262240993204753128
14840074 17 18340778133971931350
14856354 85 17968676984941510634
14910302 57 18129362934624493096
14955137 171 18117006687507807705
15131766 46 17129283536241410944
15876981 60 17822024094211740781
20771845 38 17987799592382917482
23419403 2 17554637010085630357
23559900 14 17895478145194564385
469060 322 18340201985536783806
497634 4 17168146715443419646
513202 73 18336267851180619774
531348 171 18265891368204897166
57527452 28 17988935500238331915
57527573 199 17824552877257667705
70251023 43 18266724964984152428

>  <PUBCHEM_SHAPE_MULTIPOLES>  (1) 
636.84
12.49
3.93
2.91
30.2
2.86
0.45
-6.19
0.54
-4.81
-2.83
-2.71
-0.62
0.22

>  <PUBCHEM_SHAPE_SELFOVERLAP>  (1) 
1344.2

>  <PUBCHEM_SHAPE_VOLUME>  (1) 
354.8

>  <PUBCHEM_COORDINATE_TYPE>  (1) 
2
5
10

$$$$
