49522
     RDKit          3D

 24 25  0  0  1  0  0  0  0  0999 V2000
   -0.7271   -1.5562   -0.3467 O   0  0  0  0  0  0  0  0  0  0  0  0
   -1.1435    0.5547   -1.1220 O   0  0  0  0  0  0  0  0  0  0  0  0
    1.5520   -3.1238    0.7258 N   0  0  0  0  0  0  0  0  0  0  0  0
   -2.7069   -0.6456    0.1412 N   0  0  0  0  0  0  0  0  0  0  0  0
    0.5693   -1.5112   -0.9602 C   0  0  0  0  0  0  0  0  0  0  0  0
    1.3413   -0.3023   -0.3825 C   0  0  0  0  0  0  0  0  0  0  0  0
    1.2290   -2.8768   -0.6738 C   0  0  0  0  0  0  0  0  0  0  0  0
    2.7601   -0.1329   -0.9432 C   0  0  0  0  0  0  0  0  0  0  0  0
    0.3492   -1.3082   -2.4660 C   0  0  0  0  0  0  0  0  0  0  0  0
    3.4893    1.0015   -0.2668 C   0  0  0  0  0  0  0  0  0  0  0  0
    0.3379   -3.1210    1.5441 C   0  0  0  0  0  0  0  0  0  0  0  0
    2.2611   -4.3962    0.8749 C   0  0  0  0  0  0  0  0  0  0  0  0
   -1.5024   -0.4397   -0.5029 C   0  0  0  0  0  0  0  0  0  0  0  0
    3.3969    2.2802   -0.7946 C   0  0  0  0  0  0  0  0  0  0  0  0
    4.2390    0.7460    0.8711 C   0  0  0  0  0  0  0  0  0  0  0  0
    4.0708    3.3292   -0.1692 C   0  0  0  0  0  0  0  0  0  0  0  0
    4.9129    1.7951    1.4964 C   0  0  0  0  0  0  0  0  0  0  0  0
    4.8288    3.0867    0.9762 C   0  0  0  0  0  0  0  0  0  0  0  0
   -3.8047    0.2394    0.2380 C   0  0  0  0  0  0  0  0  0  0  0  0
   -4.9359   -0.1552    0.9347 C   0  0  0  0  0  0  0  0  0  0  0  0
   -3.7286    1.4849   -0.3652 C   0  0  0  0  0  0  0  0  0  0  0  0
   -6.0192    0.7181    1.0307 C   0  0  0  0  0  0  0  0  0  0  0  0
   -4.8120    2.3583   -0.2690 C   0  0  0  0  0  0  0  0  0  0  0  0
   -5.9573    1.9749    0.4289 C   0  0  0  0  0  0  0  0  0  0  0  0
  1  5  1  0
  1 13  1  0
  2 13  2  0
  3  7  1  0
  3 11  1  0
  3 12  1  0
  4 13  1  0
  4 19  1  0
  5  6  1  0
  5  7  1  0
  5  9  1  0
  6  8  1  0
  8 10  1  0
 10 14  2  0
 10 15  1  0
 14 16  1  0
 15 17  2  0
 16 18  2  0
 17 18  1  0
 19 20  2  0
 19 21  1  0
 20 22  1  0
 21 23  2  0
 22 24  2  0
 23 24  1  0
M  END
>  <PUBCHEM_COMPOUND_CID>  (1) 
49522

>  <PUBCHEM_CONFORMER_RMSD>  (1) 
1

>  <PUBCHEM_CONFORMER_DIVERSEORDER>  (1) 
1
9
18
25
23
19
21
22
27
24
15
10
5
16
3
26
7
17
6
2
20
13
14
4
8
11
12

>  <PUBCHEM_MMFF94_PARTIAL_CHARGES>  (1) 
33
1 -0.43
10 -0.14
11 0.27
12 0.27
13 0.78
14 -0.15
15 -0.15
16 -0.15
17 -0.15
18 -0.15
19 0.12
2 -0.57
20 -0.15
21 -0.15
22 -0.15
23 -0.15
24 -0.15
3 -0.81
4 -0.55
40 0.15
41 0.15
42 0.15
43 0.15
44 0.37
45 0.15
46 0.15
47 0.15
48 0.15
49 0.15
5 0.28
50 0.15
7 0.27
8 0.14

>  <PUBCHEM_EFFECTIVE_ROTOR_COUNT>  (1) 
9

>  <PUBCHEM_PHARMACOPHORE_FEATURES>  (1) 
5
1 2 acceptor
1 3 cation
1 4 donor
6 10 14 15 16 17 18 rings
6 19 20 21 22 23 24 rings

>  <PUBCHEM_HEAVY_ATOM_COUNT>  (1) 
24

>  <PUBCHEM_ATOM_DEF_STEREO_COUNT>  (1) 
0

>  <PUBCHEM_ATOM_UDEF_STEREO_COUNT>  (1) 
1

>  <PUBCHEM_BOND_DEF_STEREO_COUNT>  (1) 
0

>  <PUBCHEM_BOND_UDEF_STEREO_COUNT>  (1) 
0

>  <PUBCHEM_ISOTOPIC_ATOM_COUNT>  (1) 
0

>  <PUBCHEM_COMPONENT_COUNT>  (1) 
1

>  <PUBCHEM_CACTVS_TAUTO_COUNT>  (1) 
2

>  <PUBCHEM_CONFORMER_ID>  (1) 
0000C17200000001

>  <PUBCHEM_MMFF94_ENERGY>  (1) 
81.1951

>  <PUBCHEM_FEATURE_SELFOVERLAP>  (1) 
25.371

>  <PUBCHEM_SHAPE_FINGERPRINT>  (1) 
10692045 39 18340196428560999306
12107183 9 18336249237862789984
12633257 1 16660645206114169260
12769317 202 18202280303383994097
12788726 201 17688873463827081814
12925494 130 18119805803689928613
12930653 34 18263087759171896115
13878862 14 18045203965509194301
13955234 65 18336550391462188139
13965767 371 18114170956778072020
14178342 30 18041573541259938571
14461889 52 18188220879245199083
14565420 104 18411701001971441177
14739800 52 18272926090443083145
14849402 71 18336270037914695762
15142526 21 18338799021520988769
15238133 3 18267021838184205184
15338160 23 17830739021147853036
15878777 1 12554959008946340814
17980427 26 18411127040075859926
18222031 100 11818988599722594520
18785283 64 18334288730851893074
19246450 95 17974250341428394656
193927 3 12035438428780921628
21120745 212 17042618509648697942
21315764 268 18118122460214641045
21401589 2 18200315566304207424
21452121 103 18336265630930096843
21475661 188 18412547617561630452
21756936 100 18195805400357798988
23559900 14 17678472870081350303
283562 15 17978497960387867967
2838139 119 18059570317027845460
3411729 13 18341896260151355217
376196 1 17988640873965544828
394222 165 18272088271046285466
5104073 3 18191600657798404977
5219985 13 18269838773371974620
56616090 13 17988643055487288132
57091435 61 18413394224166902161
58807428 26 18334008436742891990
5895379 119 17054718716320196817
633830 44 18342455971694265150
653340 110 18117571831952991835
67856867 119 18339358548860345459
77188 2 17762339111411632302
7808743 9 18198058282076254264
7970288 3 10737548532345261088
79837 15 18116996791360378218
960060 61 11167945774847419264
9981440 41 18335702801304462195
9999458 23 18336553737637142830

>  <PUBCHEM_SHAPE_MULTIPOLES>  (1) 
472.21
12.84
4.7
1.49
13.87
3.27
-0.31
-14.91
5.05
-5.73
1.41
-0.69
0.58
0.38

>  <PUBCHEM_SHAPE_SELFOVERLAP>  (1) 
984.175

>  <PUBCHEM_SHAPE_VOLUME>  (1) 
266.7

>  <PUBCHEM_COORDINATE_TYPE>  (1) 
2
5
10

$$$$
