49543
     RDKit          3D

 21 24  0  0  0  0  0  0  0  0999 V2000
    3.0406    0.4589   -0.0857 N   0  0  0  0  0  0  0  0  0  0  0  0
   -0.6466    0.0599    0.4092 N   0  0  0  0  0  0  0  0  0  0  0  0
    3.4935   -0.7321    0.6465 C   0  0  0  0  0  0  0  0  0  0  0  0
    3.8831    0.7108   -1.2633 C   0  0  0  0  0  0  0  0  0  0  0  0
    4.9429   -0.5769    1.1095 C   0  0  0  0  0  0  0  0  0  0  0  0
    5.3453    0.9134   -0.8626 C   0  0  0  0  0  0  0  0  0  0  0  0
    1.6395    0.3145   -0.4805 C   0  0  0  0  0  0  0  0  0  0  0  0
    5.8699   -0.2729   -0.0619 C   0  0  0  0  0  0  0  0  0  0  0  0
    0.7559    0.1801    0.7562 C   0  0  0  0  0  0  0  0  0  0  0  0
   -1.2932   -1.1311    0.1772 C   0  0  0  0  0  0  0  0  0  0  0  0
   -1.5101    1.1205    0.2684 C   0  0  0  0  0  0  0  0  0  0  0  0
   -2.6212   -0.8281   -0.1246 C   0  0  0  0  0  0  0  0  0  0  0  0
   -2.7583    0.5953   -0.0670 C   0  0  0  0  0  0  0  0  0  0  0  0
   -0.8050   -2.4423    0.2119 C   0  0  0  0  0  0  0  0  0  0  0  0
   -1.2804    2.4937    0.4119 C   0  0  0  0  0  0  0  0  0  0  0  0
   -3.5077   -1.8887   -0.4064 C   0  0  0  0  0  0  0  0  0  0  0  0
   -3.8328    1.4867   -0.2696 C   0  0  0  0  0  0  0  0  0  0  0  0
   -1.7024   -3.4757   -0.0707 C   0  0  0  0  0  0  0  0  0  0  0  0
   -2.3604    3.3564    0.2065 C   0  0  0  0  0  0  0  0  0  0  0  0
   -3.0341   -3.2053   -0.3755 C   0  0  0  0  0  0  0  0  0  0  0  0
   -3.6186    2.8626   -0.1294 C   0  0  0  0  0  0  0  0  0  0  0  0
  1  3  1  0
  1  4  1  0
  1  7  1  0
  2  9  1  0
  2 10  1  0
  2 11  1  0
  3  5  1  0
  4  6  1  0
  5  8  1  0
  6  8  1  0
  7  9  1  0
 10 12  1  0
 10 14  2  0
 11 13  2  0
 11 15  1  0
 12 13  1  0
 12 16  2  0
 13 17  1  0
 14 18  1  0
 15 19  2  0
 16 20  1  0
 17 21  2  0
 18 20  2  0
 19 21  1  0
M  END
>  <PUBCHEM_COMPOUND_CID>  (1) 
49543

>  <PUBCHEM_CONFORMER_RMSD>  (1) 
0.6

>  <PUBCHEM_CONFORMER_DIVERSEORDER>  (1) 
1
6
7
8
9
4
5
2
3
10

>  <PUBCHEM_MMFF94_PARTIAL_CHARGES>  (1) 
24
1 -0.81
10 -0.15
11 -0.15
14 -0.15
15 -0.15
16 -0.15
17 -0.15
18 -0.15
19 -0.15
2 0.05
20 -0.15
21 -0.15
3 0.27
36 0.15
37 0.15
38 0.15
39 0.15
4 0.27
40 0.15
41 0.15
42 0.15
43 0.15
7 0.27
9 0.26

>  <PUBCHEM_EFFECTIVE_ROTOR_COUNT>  (1) 
4.2

>  <PUBCHEM_PHARMACOPHORE_FEATURES>  (1) 
6
1 1 cation
1 2 cation
5 2 10 11 12 13 rings
6 1 3 4 5 6 8 rings
6 10 12 14 16 18 20 rings
6 11 13 15 17 19 21 rings

>  <PUBCHEM_HEAVY_ATOM_COUNT>  (1) 
21

>  <PUBCHEM_ATOM_DEF_STEREO_COUNT>  (1) 
0

>  <PUBCHEM_ATOM_UDEF_STEREO_COUNT>  (1) 
0

>  <PUBCHEM_BOND_DEF_STEREO_COUNT>  (1) 
0

>  <PUBCHEM_BOND_UDEF_STEREO_COUNT>  (1) 
0

>  <PUBCHEM_ISOTOPIC_ATOM_COUNT>  (1) 
0

>  <PUBCHEM_COMPONENT_COUNT>  (1) 
1

>  <PUBCHEM_CACTVS_TAUTO_COUNT>  (1) 
1

>  <PUBCHEM_CONFORMER_ID>  (1) 
0000C18700000001

>  <PUBCHEM_MMFF94_ENERGY>  (1) 
34.5905

>  <PUBCHEM_FEATURE_SELFOVERLAP>  (1) 
30.628

>  <PUBCHEM_SHAPE_FINGERPRINT>  (1) 
10319926 262 18199163188984340634
10411042 1 18050848016298043011
10595046 47 18262802986324271260
10616163 171 18411139156094166126
1100329 8 18411702114806411641
11056379 131 18340778108413039510
11315181 36 18187080694129228228
12107183 9 17974279933752570082
12173636 292 18339354154750118717
12236239 1 17894348860779405408
12293681 160 17629472004592042801
12390115 104 18057897840015664777
12553582 1 18194398020736589187
12714826 92 18060142093207345986
12788726 201 18335137652090687634
13140716 1 18340490088238518281
13167823 11 18260830414945250082
13583140 156 17774992493413939354
138480 1 16682036935267038019
14251757 5 18411141372001450114
14508225 48 18197203966231526797
14767858 380 18267845239264845573
14790565 3 18197222434365085585
15042514 8 18409735101357262011
15250474 111 18334002892415464426
15463212 79 18187640284690380104
16087824 20 18411416195418920085
16752209 62 18339067263730126491
17539 30 18270673281559840575
17818456 19 18192706757541963784
18785283 64 17401495845089768385
20101258 96 18119824739804000337
20511986 3 17968082124013997768
21033650 10 18192457263039328164
21065201 7 18343582937190775066
21426921 1 18411420639254018782
21524375 3 18116153259999435585
22224240 67 18200886063602416649
22393880 68 18412269450195034284
23402539 116 18412257337501205237
23419403 2 17202468078357589417
23557571 272 18201446890960641836
23559900 14 18129385908847703614
23598288 3 18188788230748644923
23728640 28 18409169900471517611
2748010 2 17979615052043844457
2838139 119 16662033743756745981
3178227 256 18338531768231281817
335352 9 18339921628153513383
4214541 1 18409730660339699388
5048184 11 18336550400267802584
559249 180 18335698300563961234
573450 72 18334850615705672242
67856867 119 18189895491252375012
9709674 26 18271812302512956462
9981440 41 18192715536265537857

>  <PUBCHEM_SHAPE_MULTIPOLES>  (1) 
422.21
10.54
3.82
0.89
18.48
0.77
0.04
-1.39
1.19
-6.59
0.08
0.81
-0.04
-0.95

>  <PUBCHEM_SHAPE_SELFOVERLAP>  (1) 
922.284

>  <PUBCHEM_SHAPE_VOLUME>  (1) 
230.1

>  <PUBCHEM_COORDINATE_TYPE>  (1) 
2
5
10

$$$$
