49544
     RDKit          3D

 23 26  0  0  1  0  0  0  0  0999 V2000
   -3.7521    0.2215   -0.1141 N   0  0  0  0  0  0  0  0  0  0  0  0
    1.1324    0.1488    0.7017 N   0  0  0  0  0  0  0  0  0  0  0  0
   -1.2961    0.1455    0.2422 C   0  0  0  0  0  0  0  0  0  0  0  0
   -1.2148   -1.1626   -0.5523 C   0  0  0  0  0  0  0  0  0  0  0  0
   -2.6820    0.2983    0.8916 C   0  0  0  0  0  0  0  0  0  0  0  0
   -0.1934    0.2050    1.2974 C   0  0  0  0  0  0  0  0  0  0  0  0
   -2.3781   -1.2652   -1.5328 C   0  0  0  0  0  0  0  0  0  0  0  0
   -3.7192   -1.0621   -0.8278 C   0  0  0  0  0  0  0  0  0  0  0  0
   -5.0586    0.4250    0.5119 C   0  0  0  0  0  0  0  0  0  0  0  0
    1.8519    1.2485    0.3068 C   0  0  0  0  0  0  0  0  0  0  0  0
    1.8271   -1.0100    0.4620 C   0  0  0  0  0  0  0  0  0  0  0  0
   -6.1959    0.4173   -0.5026 C   0  0  0  0  0  0  0  0  0  0  0  0
    3.0610    0.7823   -0.2098 C   0  0  0  0  0  0  0  0  0  0  0  0
    3.0453   -0.6453   -0.1118 C   0  0  0  0  0  0  0  0  0  0  0  0
    1.5284    2.6089    0.3666 C   0  0  0  0  0  0  0  0  0  0  0  0
    1.4742   -2.3420    0.7067 C   0  0  0  0  0  0  0  0  0  0  0  0
    3.9956    1.7227   -0.6920 C   0  0  0  0  0  0  0  0  0  0  0  0
    3.9586   -1.6628   -0.4594 C   0  0  0  0  0  0  0  0  0  0  0  0
   -7.5570    0.6502    0.1377 C   0  0  0  0  0  0  0  0  0  0  0  0
    2.4705    3.5209   -0.1169 C   0  0  0  0  0  0  0  0  0  0  0  0
    2.3956   -3.3318    0.3542 C   0  0  0  0  0  0  0  0  0  0  0  0
    3.6864    3.0865   -0.6388 C   0  0  0  0  0  0  0  0  0  0  0  0
    3.6200   -2.9996   -0.2205 C   0  0  0  0  0  0  0  0  0  0  0  0
  1  5  1  0
  1  8  1  0
  1  9  1  0
  2  6  1  0
  2 10  1  0
  2 11  1  0
  3  4  1  0
  3  5  1  0
  3  6  1  0
  4  7  1  0
  7  8  1  0
  9 12  1  0
 10 13  1  0
 10 15  2  0
 11 14  2  0
 11 16  1  0
 12 19  1  0
 13 14  1  0
 13 17  2  0
 14 18  1  0
 15 20  1  0
 16 21  2  0
 17 22  1  0
 18 23  2  0
 20 22  2  0
 21 23  1  0
M  END
>  <PUBCHEM_COMPOUND_CID>  (1) 
49544

>  <PUBCHEM_CONFORMER_RMSD>  (1) 
0.8

>  <PUBCHEM_CONFORMER_DIVERSEORDER>  (1) 
1
9
5
17
11
14
16
8
4
12
13
10
15
2
7
6
3

>  <PUBCHEM_MMFF94_PARTIAL_CHARGES>  (1) 
24
1 -0.81
10 -0.15
11 -0.15
15 -0.15
16 -0.15
17 -0.15
18 -0.15
2 0.05
20 -0.15
21 -0.15
22 -0.15
23 -0.15
39 0.15
40 0.15
41 0.15
42 0.15
46 0.15
47 0.15
48 0.15
49 0.15
5 0.27
6 0.26
8 0.27
9 0.27

>  <PUBCHEM_EFFECTIVE_ROTOR_COUNT>  (1) 
5.2

>  <PUBCHEM_PHARMACOPHORE_FEATURES>  (1) 
7
1 1 cation
1 19 hydrophobe
1 2 cation
5 2 10 11 13 14 rings
6 1 3 4 5 7 8 rings
6 10 13 15 17 20 22 rings
6 11 14 16 18 21 23 rings

>  <PUBCHEM_HEAVY_ATOM_COUNT>  (1) 
23

>  <PUBCHEM_ATOM_DEF_STEREO_COUNT>  (1) 
0

>  <PUBCHEM_ATOM_UDEF_STEREO_COUNT>  (1) 
1

>  <PUBCHEM_BOND_DEF_STEREO_COUNT>  (1) 
0

>  <PUBCHEM_BOND_UDEF_STEREO_COUNT>  (1) 
0

>  <PUBCHEM_ISOTOPIC_ATOM_COUNT>  (1) 
0

>  <PUBCHEM_COMPONENT_COUNT>  (1) 
1

>  <PUBCHEM_CACTVS_TAUTO_COUNT>  (1) 
1

>  <PUBCHEM_CONFORMER_ID>  (1) 
0000C18800000001

>  <PUBCHEM_MMFF94_ENERGY>  (1) 
41.5541

>  <PUBCHEM_FEATURE_SELFOVERLAP>  (1) 
35.702

>  <PUBCHEM_SHAPE_FINGERPRINT>  (1) 
10165383 225 18040444317052969830
10411042 1 18048878490351339962
10693767 8 18201730505443327590
10763959 59 18262512582021388469
12107183 9 17981895134017071729
12236239 1 17988360378009561371
12293681 160 17772482419736846576
12553582 1 18194956353732146326
12730499 353 18261965144829885545
12788726 201 17417542345424027705
13004483 165 17905877094679860986
13009979 54 17773605909939617434
13533116 47 18412545401659374161
13583140 156 18337401542933103947
13785724 45 17767414482918553903
13878862 14 18191843718340057717
13955234 65 18408885139596828051
15250474 111 18129647721280036951
15439362 3 18265337377659107836
16752209 62 16773806874584107403
17818456 19 17630051455677589121
17844677 252 18337397041918335681
17980427 23 18055321834832498050
1813 80 18056205670087606590
19427546 62 18262521527556771435
20157964 124 18409166619612355845
20554085 129 17987225811391823392
20612939 158 18410859849822180209
20645477 70 18335138682866520411
21033648 29 17167854254504888045
21033650 10 15338298799938139995
21315759 148 17894641374771613651
21344244 78 18269256989828224712
22033318 11 17768838385231499409
221357 26 18262518087673316589
22393880 68 18057607761965836772
2255824 54 18411417328272447218
22907989 373 16821375368327810188
23081809 10 17989484114086102545
23522609 53 17916888888890657865
23559900 14 18412820287665889515
23598291 2 18129677308881769160
238 59 18337677537252099938
25 1 18263926708281865432
3004659 81 18059858328923473711
397830 11 17968392242649462369
4073 2 18187088407933093131
46194498 28 18260547788357992429
465052 167 18272091552891909783
474 4 18337109076523224464
5281201 14 18261952951486524757
543358 83 18413390938236787050
6025842 7 18410013247106193775
8272917 22 18410576197107159494
84936 182 18200029698024800560
9981440 41 17836355322152484512
9999458 23 18335139774036412775

>  <PUBCHEM_SHAPE_MULTIPOLES>  (1) 
463.37
12.28
3.66
1.01
27.49
0.52
0.06
2.53
1.71
-6.98
0.23
0.33
-0.13
-0.95

>  <PUBCHEM_SHAPE_SELFOVERLAP>  (1) 
1002.665

>  <PUBCHEM_SHAPE_VOLUME>  (1) 
251.8

>  <PUBCHEM_COORDINATE_TYPE>  (1) 
2
5
10

$$$$
