49542
     RDKit          3D

 22 25  0  0  0  0  0  0  0  0999 V2000
    5.5313    0.2740   -0.1987 N   0  0  0  0  0  0  0  0  0  0  0  0
   -1.0196   -0.0756    0.4210 N   0  0  0  0  0  0  0  0  0  0  0  0
    2.7343   -0.5907   -0.0431 C   0  0  0  0  0  0  0  0  0  0  0  0
    3.2583    0.6381    0.7079 C   0  0  0  0  0  0  0  0  0  0  0  0
    3.6116   -0.8604   -1.2703 C   0  0  0  0  0  0  0  0  0  0  0  0
    1.2729   -0.4074   -0.4429 C   0  0  0  0  0  0  0  0  0  0  0  0
    4.7495    0.5034    1.0236 C   0  0  0  0  0  0  0  0  0  0  0  0
    5.0908   -0.9458   -0.8888 C   0  0  0  0  0  0  0  0  0  0  0  0
    0.3835   -0.2429    0.7847 C   0  0  0  0  0  0  0  0  0  0  0  0
   -1.9059   -1.1093    0.2739 C   0  0  0  0  0  0  0  0  0  0  0  0
   -1.6164    1.1342    0.1847 C   0  0  0  0  0  0  0  0  0  0  0  0
    6.9584    0.1988    0.1132 C   0  0  0  0  0  0  0  0  0  0  0  0
   -3.1332   -0.5446   -0.0741 C   0  0  0  0  0  0  0  0  0  0  0  0
   -2.9502    0.8737   -0.1306 C   0  0  0  0  0  0  0  0  0  0  0  0
   -1.7217   -2.4889    0.4197 C   0  0  0  0  0  0  0  0  0  0  0  0
   -1.0870    2.4292    0.2242 C   0  0  0  0  0  0  0  0  0  0  0  0
   -4.2335   -1.4013   -0.2878 C   0  0  0  0  0  0  0  0  0  0  0  0
   -3.7995    1.9619   -0.4215 C   0  0  0  0  0  0  0  0  0  0  0  0
   -2.8264   -3.3169    0.2031 C   0  0  0  0  0  0  0  0  0  0  0  0
   -1.9480    3.4906   -0.0671 C   0  0  0  0  0  0  0  0  0  0  0  0
   -4.0647   -2.7832   -0.1455 C   0  0  0  0  0  0  0  0  0  0  0  0
   -3.2846    3.2628   -0.3856 C   0  0  0  0  0  0  0  0  0  0  0  0
  1  7  1  0
  1  8  1  0
  1 12  1  0
  2  9  1  0
  2 10  1  0
  2 11  1  0
  3  4  1  0
  3  5  1  0
  3  6  1  0
  4  7  1  0
  5  8  1  0
  6  9  1  0
 10 13  1  0
 10 15  2  0
 11 14  2  0
 11 16  1  0
 13 14  1  0
 13 17  2  0
 14 18  1  0
 15 19  1  0
 16 20  2  0
 17 21  1  0
 18 22  2  0
 19 21  2  0
 20 22  1  0
M  END
>  <PUBCHEM_COMPOUND_CID>  (1) 
49542

>  <PUBCHEM_CONFORMER_RMSD>  (1) 
0.6

>  <PUBCHEM_CONFORMER_DIVERSEORDER>  (1) 
1
6
5
3
10
7
4
2
8
9

>  <PUBCHEM_MMFF94_PARTIAL_CHARGES>  (1) 
24
1 -0.81
10 -0.15
11 -0.15
12 0.27
15 -0.15
16 -0.15
17 -0.15
18 -0.15
19 -0.15
2 0.05
20 -0.15
21 -0.15
22 -0.15
39 0.15
40 0.15
41 0.15
42 0.15
43 0.15
44 0.15
45 0.15
46 0.15
7 0.27
8 0.27
9 0.26

>  <PUBCHEM_EFFECTIVE_ROTOR_COUNT>  (1) 
4.2

>  <PUBCHEM_PHARMACOPHORE_FEATURES>  (1) 
6
1 1 cation
1 2 cation
5 2 10 11 13 14 rings
6 1 3 4 5 7 8 rings
6 10 13 15 17 19 21 rings
6 11 14 16 18 20 22 rings

>  <PUBCHEM_HEAVY_ATOM_COUNT>  (1) 
22

>  <PUBCHEM_ATOM_DEF_STEREO_COUNT>  (1) 
0

>  <PUBCHEM_ATOM_UDEF_STEREO_COUNT>  (1) 
0

>  <PUBCHEM_BOND_DEF_STEREO_COUNT>  (1) 
0

>  <PUBCHEM_BOND_UDEF_STEREO_COUNT>  (1) 
0

>  <PUBCHEM_ISOTOPIC_ATOM_COUNT>  (1) 
0

>  <PUBCHEM_COMPONENT_COUNT>  (1) 
1

>  <PUBCHEM_CACTVS_TAUTO_COUNT>  (1) 
1

>  <PUBCHEM_CONFORMER_ID>  (1) 
0000C18600000001

>  <PUBCHEM_MMFF94_ENERGY>  (1) 
40.8387

>  <PUBCHEM_FEATURE_SELFOVERLAP>  (1) 
30.628

>  <PUBCHEM_SHAPE_FINGERPRINT>  (1) 
10319926 262 18268409305914811330
10411042 1 18121500421748936059
10595046 47 18333733546578695986
10937287 8 17762336912177497025
11056379 131 18410579482894394846
11101153 10 18191592058931629772
11315181 36 17894912962395809782
11833330 49 18335418019355673393
12107183 9 17829316996410272818
12173636 292 18265048025326793277
12236239 1 17458338654461581754
12390115 104 18127138472415303785
12403259 415 17917423255445885656
12788726 201 18260822718010772731
13583140 156 17988921167863276358
138480 1 16320901211705926001
14142880 1 17894912863532713981
14508225 48 18267573784246012269
14790565 3 17836933296012802689
15042514 8 18336273422533489459
15250474 111 18188195521484535450
15463212 79 18114742612281899739
15961568 22 18119243111539910180
16087824 20 18409446957161393421
17539 30 18340197575132488311
17844677 252 18409453613664272376
18927931 339 18409735092155527462
19489759 90 18334856130306763906
20101258 96 18263652916933024105
20645477 56 18338801117491558713
20693207 138 17844553053189535342
21033648 29 17775270669744906536
21033650 10 18118147834806923086
21065201 7 18411698764710386578
21315763 129 18410572912385852528
2132832 1 18042126616729742596
21426921 1 18410012139041548233
22122407 14 15357706249324943901
22224240 67 18198917907782052729
22393880 68 18269000799983998198
2297311 6 18339085985487203750
23402539 116 18408880758777723454
23557571 272 18342740727899336712
23559900 14 18271525274401825670
283562 15 18410855439444908707
335352 9 18410007780715548343
4214541 1 18411138022216908032
5104073 3 18201720622628484418
5283173 99 18412261705941861488
531348 171 18337676300428469954
5969126 39 18271796982332800919
59755656 520 18189612744104910764
6327066 14 18043805377997223341
7808743 9 18336262328100649152
9709674 26 18343305829657974782
9981440 41 18261397702188367683

>  <PUBCHEM_SHAPE_MULTIPOLES>  (1) 
442.79
12.42
3.68
0.88
23.62
1
-0.05
-1.33
-1.12
-7.18
-0.11
0.68
-0.06
0.94

>  <PUBCHEM_SHAPE_SELFOVERLAP>  (1) 
963.355

>  <PUBCHEM_SHAPE_VOLUME>  (1) 
239.4

>  <PUBCHEM_COORDINATE_TYPE>  (1) 
2
5
10

$$$$
