49546
     RDKit          3D

 28 29  0  0  1  0  0  0  0  0999 V2000
   -1.9148    0.9977    0.5712 O   0  0  0  0  0  0  0  0  0  0  0  0
   -3.6650   -0.0654   -0.2434 O   0  0  0  0  0  0  0  0  0  0  0  0
   -3.1686   -0.3124    1.9940 O   0  0  0  0  0  0  0  0  0  0  0  0
    2.8187   -1.9751    0.4724 N   0  0  0  0  0  0  0  0  0  0  0  0
    0.5104    0.3940    0.4329 C   0  0  0  0  0  0  0  0  0  0  0  0
    1.6841    0.0250    1.4357 C   0  0  0  0  0  0  0  0  0  0  0  0
   -0.7235    0.8397    1.3504 C   0  0  0  0  0  0  0  0  0  0  0  0
    2.9936   -0.5735    0.8588 C   0  0  0  0  0  0  0  0  0  0  0  0
    0.1780   -0.9065   -0.3647 C   0  0  0  0  0  0  0  0  0  0  0  0
    0.8403    1.5988   -0.4997 C   0  0  0  0  0  0  0  0  0  0  0  0
   -0.5174    2.1146    2.1992 C   0  0  0  0  0  0  0  0  0  0  0  0
    4.1153   -0.4996    1.8993 C   0  0  0  0  0  0  0  0  0  0  0  0
    0.7609   -1.1275   -1.6126 C   0  0  0  0  0  0  0  0  0  0  0  0
   -0.1098    2.0535   -1.4142 C   0  0  0  0  0  0  0  0  0  0  0  0
   -0.7014   -1.8477    0.1708 C   0  0  0  0  0  0  0  0  0  0  0  0
    2.0854    2.2227   -0.4195 C   0  0  0  0  0  0  0  0  0  0  0  0
   -1.7497    2.4504    3.0343 C   0  0  0  0  0  0  0  0  0  0  0  0
    3.8004   -2.3495   -0.5439 C   0  0  0  0  0  0  0  0  0  0  0  0
    2.9349   -2.8439    1.6422 C   0  0  0  0  0  0  0  0  0  0  0  0
    0.4642   -2.2894   -2.3251 C   0  0  0  0  0  0  0  0  0  0  0  0
    0.1851    3.1317   -2.2486 C   0  0  0  0  0  0  0  0  0  0  0  0
   -0.9979   -3.0097   -0.5418 C   0  0  0  0  0  0  0  0  0  0  0  0
    2.3803    3.3009   -1.2539 C   0  0  0  0  0  0  0  0  0  0  0  0
   -2.9393    0.1581    0.8880 C   0  0  0  0  0  0  0  0  0  0  0  0
   -0.4151   -3.2304   -1.7898 C   0  0  0  0  0  0  0  0  0  0  0  0
    1.4300    3.7553   -2.1684 C   0  0  0  0  0  0  0  0  0  0  0  0
   -4.7927   -0.9340   -0.0927 C   0  0  0  0  0  0  0  0  0  0  0  0
   -5.4865   -1.0777   -1.4305 C   0  0  0  0  0  0  0  0  0  0  0  0
  1  7  1  0
  1 24  1  0
  2 24  1  0
  2 27  1  0
  3 24  2  0
  4  8  1  0
  4 18  1  0
  4 19  1  0
  5  6  1  0
  5  7  1  0
  5  9  1  0
  5 10  1  0
  6  8  1  0
  7 11  1  0
  8 12  1  0
  9 13  2  0
  9 15  1  0
 10 14  2  0
 10 16  1  0
 11 17  1  0
 13 20  1  0
 14 21  1  0
 15 22  2  0
 16 23  2  0
 20 25  2  0
 21 26  2  0
 22 25  1  0
 23 26  1  0
 27 28  1  0
M  END
>  <PUBCHEM_COMPOUND_CID>  (1) 
49546

>  <PUBCHEM_CONFORMER_RMSD>  (1) 
1

>  <PUBCHEM_CONFORMER_DIVERSEORDER>  (1) 
1
3
35
16
36
24
23
17
21
30
14
13
10
11
19
5
18
37
9
34
6
31
32
15
20
8
12
33
2
38
25
7
4
22
28
29
27
26

>  <PUBCHEM_MMFF94_PARTIAL_CHARGES>  (1) 
33
1 -0.43
10 -0.14
13 -0.15
14 -0.15
15 -0.15
16 -0.15
18 0.27
19 0.27
2 -0.43
20 -0.15
21 -0.15
22 -0.15
23 -0.15
24 0.87
25 -0.15
26 -0.15
27 0.28
3 -0.57
38 0.15
39 0.15
4 -0.81
40 0.15
41 0.15
5 0.29
51 0.15
52 0.15
53 0.15
54 0.15
55 0.15
56 0.15
7 0.28
8 0.27
9 -0.14

>  <PUBCHEM_EFFECTIVE_ROTOR_COUNT>  (1) 
11

>  <PUBCHEM_PHARMACOPHORE_FEATURES>  (1) 
4
1 17 hydrophobe
1 4 cation
6 10 14 16 21 23 26 rings
6 9 13 15 20 22 25 rings

>  <PUBCHEM_HEAVY_ATOM_COUNT>  (1) 
28

>  <PUBCHEM_ATOM_DEF_STEREO_COUNT>  (1) 
0

>  <PUBCHEM_ATOM_UDEF_STEREO_COUNT>  (1) 
2

>  <PUBCHEM_BOND_DEF_STEREO_COUNT>  (1) 
0

>  <PUBCHEM_BOND_UDEF_STEREO_COUNT>  (1) 
0

>  <PUBCHEM_ISOTOPIC_ATOM_COUNT>  (1) 
0

>  <PUBCHEM_COMPONENT_COUNT>  (1) 
1

>  <PUBCHEM_CACTVS_TAUTO_COUNT>  (1) 
1

>  <PUBCHEM_CONFORMER_ID>  (1) 
0000C18A00000001

>  <PUBCHEM_MMFF94_ENERGY>  (1) 
99.6092

>  <PUBCHEM_FEATURE_SELFOVERLAP>  (1) 
20.297

>  <PUBCHEM_SHAPE_FINGERPRINT>  (1) 
10759866 29 17975412731044671327
11421498 54 17037536033912246095
11578080 2 17405395168277652613
12788726 201 12387227247555561908
12930653 34 17273132393267666249
13134695 92 17895198779109735749
133893 2 17826550817727001293
13583140 156 17677623136281477083
14178342 30 17842009788209892699
14181834 199 18410866476956822005
14863182 85 17775290473670699575
16945 1 18409165541026860672
17349148 13 18272934908185215907
17980427 23 18410294696588037769
17980427 26 16662585874518320433
1813 80 18335980874619555590
18336668 15 18270097119949432283
20600515 1 18261961747626980923
20691752 17 17688058334520696827
21304303 282 16969691781153178228
22149856 69 17483997842505284049
23419403 2 17982134925634729921
3380486 77 18260827068564619475
394222 165 18048063996504585553
57527293 21 18120655721919149058
59554788 62 18050531228147009346

>  <PUBCHEM_SHAPE_MULTIPOLES>  (1) 
553.64
6.49
4.62
2.72
6.81
1.2
-0.52
-3.36
-1
-2.82
2.49
0.02
1.48
-2.49

>  <PUBCHEM_SHAPE_SELFOVERLAP>  (1) 
1142.87

>  <PUBCHEM_SHAPE_VOLUME>  (1) 
315.8

>  <PUBCHEM_COORDINATE_TYPE>  (1) 
2
5
10

$$$$
