49555
     RDKit          3D

 24 27  0  0  0  0  0  0  0  0999 V2000
    2.7721    0.1599   -0.0471 N   0  0  0  0  0  0  0  0  0  0  0  0
    5.5513   -0.6367   -0.0294 N   0  0  0  0  0  0  0  0  0  0  0  0
   -0.9525   -0.1320    0.6642 C   0  0  0  0  0  0  0  0  0  0  0  0
    0.4050   -0.4284    0.0081 C   0  0  0  0  0  0  0  0  0  0  0  0
    1.4958    0.4484    0.6038 C   0  0  0  0  0  0  0  0  0  0  0  0
    3.1629   -1.2387    0.1679 C   0  0  0  0  0  0  0  0  0  0  0  0
    3.8212    1.0650    0.4380 C   0  0  0  0  0  0  0  0  0  0  0  0
   -1.3962    1.3037    0.4395 C   0  0  0  0  0  0  0  0  0  0  0  0
   -1.9636   -1.2413    0.3897 C   0  0  0  0  0  0  0  0  0  0  0  0
    4.5017   -1.5416   -0.5137 C   0  0  0  0  0  0  0  0  0  0  0  0
    5.1607    0.7623   -0.2423 C   0  0  0  0  0  0  0  0  0  0  0  0
   -1.8949    1.7687   -0.7875 C   0  0  0  0  0  0  0  0  0  0  0  0
   -2.9322   -1.2650   -0.6334 C   0  0  0  0  0  0  0  0  0  0  0  0
   -2.1115    0.8346   -1.9434 C   0  0  0  0  0  0  0  0  0  0  0  0
   -3.2128   -0.1699   -1.6383 C   0  0  0  0  0  0  0  0  0  0  0  0
   -1.2507    2.2244    1.4971 C   0  0  0  0  0  0  0  0  0  0  0  0
   -1.8730   -2.3677    1.2466 C   0  0  0  0  0  0  0  0  0  0  0  0
    6.8269   -0.9246   -0.6823 C   0  0  0  0  0  0  0  0  0  0  0  0
   -2.2360    3.1257   -0.9318 C   0  0  0  0  0  0  0  0  0  0  0  0
   -3.7896   -2.3879   -0.7299 C   0  0  0  0  0  0  0  0  0  0  0  0
   -1.5948    3.5673    1.3436 C   0  0  0  0  0  0  0  0  0  0  0  0
   -2.7186   -3.4685    1.1224 C   0  0  0  0  0  0  0  0  0  0  0  0
   -2.0867    4.0189    0.1265 C   0  0  0  0  0  0  0  0  0  0  0  0
   -3.6843   -3.4769    0.1318 C   0  0  0  0  0  0  0  0  0  0  0  0
  1  5  1  0
  1  6  1  0
  1  7  1  0
  2 10  1  0
  2 11  1  0
  2 18  1  0
  3  4  1  0
  3  8  1  0
  3  9  1  0
  4  5  1  0
  6 10  1  0
  7 11  1  0
  8 12  2  0
  8 16  1  0
  9 13  2  0
  9 17  1  0
 12 14  1  0
 12 19  1  0
 13 15  1  0
 13 20  1  0
 14 15  1  0
 16 21  2  0
 17 22  2  0
 19 23  2  0
 20 24  2  0
 21 23  1  0
 22 24  1  0
M  END
>  <PUBCHEM_COMPOUND_CID>  (1) 
49555

>  <PUBCHEM_CONFORMER_RMSD>  (1) 
0.8

>  <PUBCHEM_CONFORMER_DIVERSEORDER>  (1) 
1
6
16
10
11
4
5
9
8
13
14
3
2
7
12
15

>  <PUBCHEM_MMFF94_PARTIAL_CHARGES>  (1) 
31
1 -0.81
10 0.27
11 0.27
12 -0.14
13 -0.14
14 0.14
15 0.14
16 -0.15
17 -0.15
18 0.27
19 -0.15
2 -0.81
20 -0.15
21 -0.15
22 -0.15
23 -0.15
24 -0.15
3 0.29
42 0.15
43 0.15
47 0.15
48 0.15
49 0.15
5 0.27
50 0.15
51 0.15
52 0.15
6 0.27
7 0.27
8 -0.14
9 -0.14

>  <PUBCHEM_EFFECTIVE_ROTOR_COUNT>  (1) 
4.8

>  <PUBCHEM_PHARMACOPHORE_FEATURES>  (1) 
6
1 1 cation
1 2 cation
6 1 2 6 7 10 11 rings
6 8 12 16 19 21 23 rings
6 9 13 17 20 22 24 rings
7 3 8 9 12 13 14 15 rings

>  <PUBCHEM_HEAVY_ATOM_COUNT>  (1) 
24

>  <PUBCHEM_ATOM_DEF_STEREO_COUNT>  (1) 
0

>  <PUBCHEM_ATOM_UDEF_STEREO_COUNT>  (1) 
0

>  <PUBCHEM_BOND_DEF_STEREO_COUNT>  (1) 
0

>  <PUBCHEM_BOND_UDEF_STEREO_COUNT>  (1) 
0

>  <PUBCHEM_ISOTOPIC_ATOM_COUNT>  (1) 
0

>  <PUBCHEM_COMPONENT_COUNT>  (1) 
1

>  <PUBCHEM_CACTVS_TAUTO_COUNT>  (1) 
1

>  <PUBCHEM_CONFORMER_ID>  (1) 
0000C19300000001

>  <PUBCHEM_MMFF94_ENERGY>  (1) 
71.952

>  <PUBCHEM_FEATURE_SELFOVERLAP>  (1) 
30.464

>  <PUBCHEM_SHAPE_FINGERPRINT>  (1) 
10254770 206 17038946140944321130
107951 10 18125438610068423909
11014199 57 18336552694060647668
11036077 51 18194681462665325035
11045515 52 18264487463290629793
11101153 10 18192161593275553220
12293681 160 18196349465408974941
12788726 201 18337941312610652571
12969540 37 17402329772661061519
13631057 29 18408884075073016866
13690498 29 18271264763171225390
14251740 79 18334011679211364874
14251757 5 18409726249023177619
14347332 77 18410008841029417570
14508225 48 18338793528474205317
14713325 29 18342181024761901622
14863182 85 15883500810273883027
15463212 79 18117834395897884872
16994733 274 14996822361519606775
1813 80 17913790563073843455
20101258 96 18130788983804537216
21049683 271 17684940493411674365
21120745 212 18195272076408810333
22393880 68 18409728418651945302
22907989 373 18409731767955965460
23175994 123 18267018556485857903
23557571 272 18411420630727420526
23558518 356 18334867073767461218
23559900 14 18337379543788918720
283562 15 18334576866895683562
394222 165 16883259812840048609
4058900 60 17691972562031107825
4073 2 18340488860252540962
4258327 124 17822592528791179956
437815 12 18340483499832915727
463206 1 18120936376009486322
469060 322 16371024996025807553
4921388 177 18410576145747029948
5104073 3 18272087176694275634
531348 171 17386838414588693082
57262259 84 18409447024757036017
59755656 520 18263645052389202693
7399639 24 18056751251477775344
77188 2 18123756610807772625
84936 31 17261304216986357073
9709674 26 18270965631388736134
9981440 41 17773304635089987982

>  <PUBCHEM_SHAPE_MULTIPOLES>  (1) 
483.95
10.62
4.65
1.37
25.37
1.79
-0.18
-6.15
-2.79
-7.18
1.3
-1.23
0.33
0.72

>  <PUBCHEM_SHAPE_SELFOVERLAP>  (1) 
1034.226

>  <PUBCHEM_SHAPE_VOLUME>  (1) 
262.3

>  <PUBCHEM_COORDINATE_TYPE>  (1) 
2
5
10

$$$$
