4955
     RDKit          3D

 24 24  0  0  1  0  0  0  0  0999 V2000
   -2.0283   -4.1513   -1.7048 O   0  0  0  0  0  0  0  0  0  0  0  0
    4.5618   -0.8041    1.3068 O   0  0  0  0  0  0  0  0  0  0  0  0
   -0.0525    2.2821    1.7801 O   0  0  0  0  0  0  0  0  0  0  0  0
    0.4142    4.3826    1.0535 O   0  0  0  0  0  0  0  0  0  0  0  0
    1.4753   -2.5504    1.5093 C   0  0  0  0  0  0  0  0  0  0  0  0
    1.4989   -1.8171    0.2004 C   0  0  0  0  0  0  0  0  0  0  0  0
    2.6098   -1.1041   -0.0258 C   0  0  0  0  0  0  0  0  0  0  0  0
    2.8041   -2.2113    2.1704 C   0  0  0  0  0  0  0  0  0  0  0  0
   -3.1907   -2.3219   -0.6148 C   0  0  0  0  0  0  0  0  0  0  0  0
   -3.1139   -0.8527   -0.1842 C   0  0  0  0  0  0  0  0  0  0  0  0
    3.4583   -1.3107    1.1655 C   0  0  0  0  0  0  0  0  0  0  0  0
   -1.9024   -2.7872   -1.3064 C   0  0  0  0  0  0  0  0  0  0  0  0
    3.0391   -0.2515   -1.1599 C   0  0  0  0  0  0  0  0  0  0  0  0
   -4.4188   -0.3976    0.4723 C   0  0  0  0  0  0  0  0  0  0  0  0
    0.3683   -1.9328   -0.6758 C   0  0  0  0  0  0  0  0  0  0  0  0
   -0.7170   -2.6655   -0.3892 C   0  0  0  0  0  0  0  0  0  0  0  0
   -4.3329    1.0586    0.9286 C   0  0  0  0  0  0  0  0  0  0  0  0
    2.6178    1.1940   -1.0977 C   0  0  0  0  0  0  0  0  0  0  0  0
    1.8173    1.8481   -1.9544 C   0  0  0  0  0  0  0  0  0  0  0  0
   -5.6156    1.5048    1.6119 C   0  0  0  0  0  0  0  0  0  0  0  0
    1.4539    3.2990   -1.8095 C   0  0  0  0  0  0  0  0  0  0  0  0
   -0.0538    3.5240   -1.6631 C   0  0  0  0  0  0  0  0  0  0  0  0
   -0.6532    2.7986   -0.4566 C   0  0  0  0  0  0  0  0  0  0  0  0
   -0.0398    3.2664    0.8434 C   0  0  0  0  0  0  0  0  0  0  0  0
  1 12  1  0
  2 11  2  0
  3 24  1  0
  4 24  2  0
  5  6  1  0
  5  8  1  0
  6  7  2  0
  6 15  1  0
  7 11  1  0
  7 13  1  0
  8 11  1  0
  9 10  1  0
  9 12  1  0
 10 14  1  0
 12 16  1  0
 13 18  1  0
 14 17  1  0
 15 16  2  0
 17 20  1  0
 18 19  2  0
 19 21  1  0
 21 22  1  0
 22 23  1  0
 23 24  1  0
M  END
>  <PUBCHEM_COMPOUND_CID>  (1) 
4955

>  <PUBCHEM_CONFORMER_RMSD>  (1) 
1

>  <PUBCHEM_CONFORMER_DIVERSEORDER>  (1) 
1
277
92
150
223
132
155
37
343
61
263
230
352
91
193
199
262
12
321
95
267
216
2
303
184
304
361
179
160
284
110
194
286
202
255
185
207
56
208
171
282
49
261
257
86
146
283
350
220
258
154
182
212
148
280
318
14
74
120
353
32
54
153
83
305
127
125
151
88
331
299
289
241
84
330
351
101
158
50
296
315
119
333
314
323
108
15
190
250
43
143
140
340
251
25
145
131
156
254
214
134
180
311
209
332
35
121
265
135
276
94
48
189
152
322
298
205
130
215
136
178
172
290
157
292
273
57
59
27
229
53
112
346
210
222
368
327
309
70
324
21
248
198
344
256
113
320
90
373
47
355
68
328
133
200
246
187
371
122
195
161
272
342
73
116
218
66
247
192
270
310
138
115
96
98
253
106
40
186
142
85
329
129
107
103
82
269
117
60
281
244
367
181
236
341
287
300
271
219
79
326
239
72
45
293
8
347
31
164
126
191
217
149
58
295
102
71
358
22
366
196
316
52
139
224
206
78
356
211
163
104
165
11
19
259
67
9
64
240
16
213
173
46
175
20
279
336
17
235
278
87
228
197
374
291
34
307
334
75
266
243
274
109
159
201
76
363
188
141
170
354
176
33
238
204
114
42
203
169
6
308
233
147
100
252
177
81
97
80
3
260
77
294
39
111
339
26
345
288
41
24
349
325
36
231
162
23
317
221
237
242
227
360
38
144
365
4
183
62
234
93
249
313
65
167
123
5
369
268
166
118
168
29
312
306
319
174
28
348
359
232
10
357
335
285
7
99
51
301
225
18
13
337
105
245
124
370
55
364
302
275
137
372
69
362
226
338
44
297
264
30
128
89
63

>  <PUBCHEM_MMFF94_PARTIAL_CHARGES>  (1) 
24
1 -0.68
11 0.49
12 0.42
13 0.28
15 -0.15
16 -0.29
18 -0.29
19 -0.29
2 -0.57
21 0.14
23 0.06
24 0.66
3 -0.65
38 0.15
39 0.15
4 -0.57
42 0.15
43 0.15
49 0.4
5 0.14
54 0.5
6 -0.14
7 -0.12
8 0.06

>  <PUBCHEM_EFFECTIVE_ROTOR_COUNT>  (1) 
12.4

>  <PUBCHEM_PHARMACOPHORE_FEATURES>  (1) 
10
1 1 acceptor
1 1 donor
1 2 acceptor
1 20 hydrophobe
1 3 acceptor
1 4 acceptor
3 3 4 24 anion
4 19 21 22 23 hydrophobe
4 9 10 14 17 hydrophobe
5 5 6 7 8 11 rings

>  <PUBCHEM_HEAVY_ATOM_COUNT>  (1) 
24

>  <PUBCHEM_ATOM_DEF_STEREO_COUNT>  (1) 
0

>  <PUBCHEM_ATOM_UDEF_STEREO_COUNT>  (1) 
1

>  <PUBCHEM_BOND_DEF_STEREO_COUNT>  (1) 
0

>  <PUBCHEM_BOND_UDEF_STEREO_COUNT>  (1) 
2

>  <PUBCHEM_ISOTOPIC_ATOM_COUNT>  (1) 
0

>  <PUBCHEM_COMPONENT_COUNT>  (1) 
1

>  <PUBCHEM_CACTVS_TAUTO_COUNT>  (1) 
7

>  <PUBCHEM_CONFORMER_ID>  (1) 
0000135B00000001

>  <PUBCHEM_MMFF94_ENERGY>  (1) 
13.1967

>  <PUBCHEM_FEATURE_SELFOVERLAP>  (1) 
50.805

>  <PUBCHEM_SHAPE_FINGERPRINT>  (1) 
13965767 371 18269823251344433594
14117953 113 18122350073537612605
15297060 5 17630352777671534179
15403338 16 17386851604480407715
19734167 9 17331948435691670064
20600515 1 18060132163221806842
23558518 356 17689724477173177101
445580 8 18339370660493858483
474144 1 18262535744331453477
484985 159 14641314830989407978
5895379 119 18059298789089813022
7064713 232 18201160928001459345
84936 182 17759238892326578838

>  <PUBCHEM_SHAPE_MULTIPOLES>  (1) 
470.43
7.82
5.98
2.1
8.48
3.45
-0.2
-1.86
-3.92
0.44
1.5
-0.61
0.2
-3.54

>  <PUBCHEM_SHAPE_SELFOVERLAP>  (1) 
929.687

>  <PUBCHEM_SHAPE_VOLUME>  (1) 
280.9

>  <PUBCHEM_COORDINATE_TYPE>  (1) 
2
5
10

$$$$
