49557
     RDKit          3D

 25 28  0  0  1  0  0  0  0  0999 V2000
   -3.5155    0.4216   -0.2662 N   0  0  0  0  0  0  0  0  0  0  0  0
   -4.5227    1.0118   -1.1686 C   0  0  0  0  0  0  0  0  0  0  0  0
   -5.8148    0.1737   -1.1210 C   0  0  0  0  0  0  0  0  0  0  0  0
   -3.9763    0.2993    1.1214 C   0  0  0  0  0  0  0  0  0  0  0  0
   -6.3465   -0.0004    0.2986 C   0  0  0  0  0  0  0  0  0  0  0  0
   -5.2521   -0.5381    1.2119 C   0  0  0  0  0  0  0  0  0  0  0  0
   -2.2216    1.0949   -0.3321 C   0  0  0  0  0  0  0  0  0  0  0  0
   -4.8233    2.4999   -0.9307 C   0  0  0  0  0  0  0  0  0  0  0  0
   -1.1647    0.2857    0.4188 C   0  0  0  0  0  0  0  0  0  0  0  0
    0.1722    0.9514    0.3439 C   0  0  0  0  0  0  0  0  0  0  0  0
    1.3419    0.2826    0.3515 C   0  0  0  0  0  0  0  0  0  0  0  0
    2.6185    1.0412    0.2728 C   0  0  0  0  0  0  0  0  0  0  0  0
    1.2587   -1.1929    0.3331 C   0  0  0  0  0  0  0  0  0  0  0  0
    3.6908   -0.4951   -1.5492 C   0  0  0  0  0  0  0  0  0  0  0  0
    2.3658   -1.1543   -1.9349 C   0  0  0  0  0  0  0  0  0  0  0  0
    3.6771    0.6829   -0.5911 C   0  0  0  0  0  0  0  0  0  0  0  0
    1.7512   -1.8985   -0.7772 C   0  0  0  0  0  0  0  0  0  0  0  0
    2.7959    2.1394    1.1433 C   0  0  0  0  0  0  0  0  0  0  0  0
    0.7011   -1.8960    1.4120 C   0  0  0  0  0  0  0  0  0  0  0  0
    4.8656    1.4463   -0.5562 C   0  0  0  0  0  0  0  0  0  0  0  0
    1.6714   -3.2983   -0.7940 C   0  0  0  0  0  0  0  0  0  0  0  0
    3.9759    2.8828    1.1513 C   0  0  0  0  0  0  0  0  0  0  0  0
    0.6277   -3.2883    1.3831 C   0  0  0  0  0  0  0  0  0  0  0  0
    5.0122    2.5369    0.2984 C   0  0  0  0  0  0  0  0  0  0  0  0
    1.1113   -3.9885    0.2809 C   0  0  0  0  0  0  0  0  0  0  0  0
  1  2  1  0
  1  4  1  0
  1  7  1  0
  2  3  1  0
  2  8  1  0
  3  5  1  0
  4  6  1  0
  5  6  1  0
  7  9  1  0
  9 10  1  0
 10 11  2  3
 11 12  1  0
 11 13  1  0
 12 16  2  0
 12 18  1  0
 13 17  2  0
 13 19  1  0
 14 15  1  0
 14 16  1  0
 15 17  1  0
 16 20  1  0
 17 21  1  0
 18 22  2  0
 19 23  2  0
 20 24  2  0
 21 25  2  0
 22 24  1  0
 23 25  1  0
M  END
>  <PUBCHEM_COMPOUND_CID>  (1) 
49557

>  <PUBCHEM_CONFORMER_RMSD>  (1) 
0.8

>  <PUBCHEM_CONFORMER_DIVERSEORDER>  (1) 
4
12
46
50
68
21
48
44
67
13
32
52
23
42
72
25
51
29
59
35
33
7
31
70
69
63
43
16
58
71
41
60
38
64
6
62
37
54
1
57
3
61
20
45
34
49
65
55
17
53
28
56
15
66
22
10
47
26
19
40
30
39
24
36
5
27
9
2
18
11
8
14

>  <PUBCHEM_MMFF94_PARTIAL_CHARGES>  (1) 
30
1 -0.81
10 -0.29
11 -0.06
12 0.03
13 0.03
14 0.14
15 0.14
16 -0.14
17 -0.14
18 -0.15
19 -0.15
2 0.27
20 -0.15
21 -0.15
22 -0.15
23 -0.15
24 -0.15
25 -0.15
4 0.27
42 0.15
47 0.15
48 0.15
49 0.15
50 0.15
51 0.15
52 0.15
53 0.15
54 0.15
7 0.27
9 0.14

>  <PUBCHEM_EFFECTIVE_ROTOR_COUNT>  (1) 
4.6

>  <PUBCHEM_PHARMACOPHORE_FEATURES>  (1) 
5
1 1 cation
6 1 2 3 4 5 6 rings
6 12 16 18 20 22 24 rings
6 13 17 19 21 23 25 rings
7 11 12 13 14 15 16 17 rings

>  <PUBCHEM_HEAVY_ATOM_COUNT>  (1) 
25

>  <PUBCHEM_ATOM_DEF_STEREO_COUNT>  (1) 
0

>  <PUBCHEM_ATOM_UDEF_STEREO_COUNT>  (1) 
1

>  <PUBCHEM_BOND_DEF_STEREO_COUNT>  (1) 
0

>  <PUBCHEM_BOND_UDEF_STEREO_COUNT>  (1) 
0

>  <PUBCHEM_ISOTOPIC_ATOM_COUNT>  (1) 
0

>  <PUBCHEM_COMPONENT_COUNT>  (1) 
1

>  <PUBCHEM_CACTVS_TAUTO_COUNT>  (1) 
1

>  <PUBCHEM_CONFORMER_ID>  (1) 
0000C19500000004

>  <PUBCHEM_MMFF94_ENERGY>  (1) 
71.4244

>  <PUBCHEM_FEATURE_SELFOVERLAP>  (1) 
25.386

>  <PUBCHEM_SHAPE_FINGERPRINT>  (1) 
10074138 170 17830150752245749546
10369192 42 18260829353582355204
11421498 54 17275113807741711273
11488393 25 18337959965453503322
12166972 35 10953459639734255503
12596602 18 17775010120101991217
12597179 24 18270684293887700550
12730499 353 18411143545212606387
12769317 202 18342734117955549232
13009979 54 16771556045037820690
13034934 17 18190757503519391499
13955234 65 18339642239523515363
146900 427 18342461439240282769
17844677 252 18272374123138073885
17980427 23 16660644128193176183
20567600 254 18335979848227769372
20567600 347 18260547818512680898
20645477 70 18269267981113823135
21033648 29 18337944714072439424
21033650 10 16227182375196502893
21049683 118 18051947476311567080
21120745 212 17112694788059950178
22149856 69 18115047238155833105
22182313 1 18192454028196257570
22393880 68 18410294670986584319
22956985 138 17387398048500581794
23516275 137 16986904369973241287
23557571 272 17458627770522663949
23559900 14 17749957631192868719
238 59 18341623585499532090
239999 70 18202003192083104094
4340502 62 18409450310074688686
469060 322 17605541348993809159
484989 97 18339098072063647694
5104073 3 18114461142254693825
57359948 33 17604134927908909285
59755656 520 18263071275387399358
6442390 28 18335984267585508702
6669772 16 18412824707709502158
7399639 24 18334005095274537037
9971528 1 8430317926449994417

>  <PUBCHEM_SHAPE_MULTIPOLES>  (1) 
509.51
12.74
3.88
1.49
18.81
3.16
-0.17
-9.15
-1.75
-4.32
0.78
-0.12
0.32
1.98

>  <PUBCHEM_SHAPE_SELFOVERLAP>  (1) 
1092.289

>  <PUBCHEM_SHAPE_VOLUME>  (1) 
277.9

>  <PUBCHEM_COORDINATE_TYPE>  (1) 
2
5
10

$$$$
