49591
     RDKit          3D

 18 20  0  0  0  0  0  0  0  0999 V2000
    5.2832   -2.2499   -0.0020 Br  0  0  0  0  0  0  0  0  0  0  0  0
    0.9231    1.9659    0.0102 O   0  0  0  0  0  0  0  0  0  0  0  0
   -1.2834    2.5433   -0.0288 O   0  0  0  0  0  0  0  0  0  0  0  0
   -4.8996   -0.9721    0.0165 N   0  0  0  0  0  0  0  0  0  0  0  0
    1.5632   -0.3756   -0.0059 C   0  0  0  0  0  0  0  0  0  0  0  0
   -0.7986    0.2139   -0.0148 C   0  0  0  0  0  0  0  0  0  0  0  0
    1.9156    0.9684    0.0074 C   0  0  0  0  0  0  0  0  0  0  0  0
    0.1538   -0.7315   -0.0115 C   0  0  0  0  0  0  0  0  0  0  0  0
   -2.2149   -0.1977   -0.0046 C   0  0  0  0  0  0  0  0  0  0  0  0
   -0.4347    1.6575   -0.0095 C   0  0  0  0  0  0  0  0  0  0  0  0
    2.5755   -1.3384   -0.0094 C   0  0  0  0  0  0  0  0  0  0  0  0
    3.2474    1.3781    0.0167 C   0  0  0  0  0  0  0  0  0  0  0  0
    3.9164   -0.9434   -0.0004 C   0  0  0  0  0  0  0  0  0  0  0  0
    4.2513    0.4124    0.0125 C   0  0  0  0  0  0  0  0  0  0  0  0
   -2.8775   -0.3818    1.2032 C   0  0  0  0  0  0  0  0  0  0  0  0
   -2.8914   -0.3998   -1.2019 C   0  0  0  0  0  0  0  0  0  0  0  0
   -4.2082   -0.7660    1.1598 C   0  0  0  0  0  0  0  0  0  0  0  0
   -4.2213   -0.7832   -1.1376 C   0  0  0  0  0  0  0  0  0  0  0  0
  1 13  1  0
  2  7  1  0
  2 10  1  0
  3 10  2  0
  4 17  2  0
  4 18  1  0
  5  7  2  0
  5  8  1  0
  5 11  1  0
  6  8  2  0
  6  9  1  0
  6 10  1  0
  7 12  1  0
  9 15  2  0
  9 16  1  0
 11 13  2  0
 12 14  2  0
 13 14  1  0
 15 17  1  0
 16 18  2  0
M  END
>  <PUBCHEM_COMPOUND_CID>  (1) 
49591

>  <PUBCHEM_CONFORMER_RMSD>  (1) 
0.6

>  <PUBCHEM_CONFORMER_DIVERSEORDER>  (1) 
1
2

>  <PUBCHEM_MMFF94_PARTIAL_CHARGES>  (1) 
26
1 -0.11
10 0.71
11 -0.15
12 -0.15
13 0.11
14 -0.15
15 -0.15
16 -0.15
17 0.16
18 0.16
19 0.15
2 -0.23
20 0.15
21 0.15
22 0.15
23 0.15
24 0.15
25 0.15
26 0.15
3 -0.57
4 -0.62
5 0.03
6 -0.01
7 0.08
8 -0.18
9 0.03

>  <PUBCHEM_EFFECTIVE_ROTOR_COUNT>  (1) 
1

>  <PUBCHEM_PHARMACOPHORE_FEATURES>  (1) 
6
1 1 hydrophobe
1 3 acceptor
1 4 acceptor
6 2 5 6 7 8 10 rings
6 4 9 15 16 17 18 rings
6 5 7 11 12 13 14 rings

>  <PUBCHEM_HEAVY_ATOM_COUNT>  (1) 
18

>  <PUBCHEM_ATOM_DEF_STEREO_COUNT>  (1) 
0

>  <PUBCHEM_ATOM_UDEF_STEREO_COUNT>  (1) 
0

>  <PUBCHEM_BOND_DEF_STEREO_COUNT>  (1) 
0

>  <PUBCHEM_BOND_UDEF_STEREO_COUNT>  (1) 
0

>  <PUBCHEM_ISOTOPIC_ATOM_COUNT>  (1) 
0

>  <PUBCHEM_COMPONENT_COUNT>  (1) 
1

>  <PUBCHEM_CACTVS_TAUTO_COUNT>  (1) 
1

>  <PUBCHEM_CONFORMER_ID>  (1) 
0000C1B700000001

>  <PUBCHEM_MMFF94_ENERGY>  (1) 
60.2609

>  <PUBCHEM_FEATURE_SELFOVERLAP>  (1) 
30.473

>  <PUBCHEM_SHAPE_FINGERPRINT>  (1) 
10014705 185 10231743471020547914
11471102 20 18336826489281787828
11796584 16 17167855366010023866
12032990 46 18334860519309432370
12236239 1 17846782940433321531
12553582 1 18342175583206986918
13134695 92 18341328997908818149
13140716 1 17907857654365730384
13288520 33 18339927013367139102
13544653 18 18408042913695147980
13760787 5 18411420630621879854
13862211 1 18410852140609727986
14289901 80 15123514751969400717
14386348 63 18040436628782135987
14739800 52 16199294555690444168
15196674 1 18410855430490918468
15375462 189 18131071566703143832
16945 1 18338516451617930016
17357779 13 18261380161789525757
1813 80 18270977785671307004
18186145 218 17385722491220576385
18222031 100 18271796934671454718
193927 3 18336836290703443658
19784866 140 18187081719840734066
200 152 18413384332603498567
20028762 73 18202275909954860206
20281475 54 18272930552644902422
20645477 70 18335697256501727886
21267235 1 18411426085768792582
221490 88 18408887300593131300
23175994 123 18114184155260038733
23402539 116 18412542076610940502
23559900 14 17894630366221709882
25147074 1 18339378370145271280
26918003 58 18113615707199761459
2748010 2 18339071580541517508
2871803 45 18259982656756434610
312423 11 18337122176579633068
3286 77 17346589790204008834
34797466 226 16443357506298642846
465052 167 18342182193003932671
474 4 17628061614367063016
5104073 3 18268987601643871952
5281201 14 17822009821908503764
573450 72 17132117948515652339
602551 16 15194996214762450718
76465 3 18343294864463874278
77492 1 17703516609593464389
83771 10 18342457036555912592
9709674 26 18408325479962894794

>  <PUBCHEM_SHAPE_MULTIPOLES>  (1) 
359.65
10.35
2.04
0.93
1.15
0.75
0.01
-6.39
0.05
1.57
-0.01
-1.09
-0.22
0.01

>  <PUBCHEM_SHAPE_SELFOVERLAP>  (1) 
783.445

>  <PUBCHEM_SHAPE_VOLUME>  (1) 
200.5

>  <PUBCHEM_COORDINATE_TYPE>  (1) 
2
5
10

$$$$
