49606
     RDKit          3D

 17 17  0  0  1  0  0  0  0  0999 V2000
   -0.2063   -1.0387    0.2494 N   0  0  0  0  0  0  0  0  0  0  0  0
    2.1627    0.3378   -0.5422 N   0  0  0  0  0  0  0  0  0  0  0  0
    3.5665    2.1514   -0.2162 N   0  0  0  0  0  0  0  0  0  0  0  0
    4.5433    0.0954   -0.3332 N   0  0  0  0  0  0  0  0  0  0  0  0
   -1.2373   -0.0847    0.0850 C   0  0  0  0  0  0  0  0  0  0  0  0
    0.5705   -1.4777   -0.8905 C   0  0  0  0  0  0  0  0  0  0  0  0
    0.0722   -1.5951    1.5562 C   0  0  0  0  0  0  0  0  0  0  0  0
   -1.1846    1.1254    0.7770 C   0  0  0  0  0  0  0  0  0  0  0  0
   -2.3075   -0.3542   -0.7680 C   0  0  0  0  0  0  0  0  0  0  0  0
    2.0344   -1.1127   -0.7051 C   0  0  0  0  0  0  0  0  0  0  0  0
   -0.1337   -3.0975    1.5389 C   0  0  0  0  0  0  0  0  0  0  0  0
   -2.2021    2.0658    0.6160 C   0  0  0  0  0  0  0  0  0  0  0  0
   -3.3250    0.5863   -0.9291 C   0  0  0  0  0  0  0  0  0  0  0  0
   -0.0512    1.4424    1.6977 C   0  0  0  0  0  0  0  0  0  0  0  0
   -2.3915   -1.6413   -1.5226 C   0  0  0  0  0  0  0  0  0  0  0  0
   -3.2722    1.7963   -0.2370 C   0  0  0  0  0  0  0  0  0  0  0  0
    3.3615    0.8012   -0.3762 C   0  0  0  0  0  0  0  0  0  0  0  0
  1  5  1  0
  1  6  1  0
  1  7  1  0
  2 10  1  0
  2 17  2  3
  3 17  1  0
  4 17  1  0
  5  8  2  0
  5  9  1  0
  6 10  1  0
  7 11  1  0
  8 12  1  0
  8 14  1  0
  9 13  2  0
  9 15  1  0
 12 16  2  0
 13 16  1  0
M  END
>  <PUBCHEM_COMPOUND_CID>  (1) 
49606

>  <PUBCHEM_CONFORMER_RMSD>  (1) 
0.6

>  <PUBCHEM_CONFORMER_DIVERSEORDER>  (1) 
2
36
34
13
1
19
43
29
32
48
4
52
16
39
15
44
20
21
12
28
51
27
26
45
56
10
7
17
30
33
54
5
38
37
49
50
35
25
24
22
42
18
8
3
14
40
23
53
9
47
55
41
11
46
6
31

>  <PUBCHEM_MMFF94_PARTIAL_CHARGES>  (1) 
23
1 -0.84
10 0.25
12 -0.15
13 -0.15
14 0.14
15 0.14
16 -0.15
17 0.55
2 -0.7
27 0.15
28 0.15
3 -0.85
35 0.15
36 0.4
37 0.4
38 0.4
39 0.4
4 -0.85
5 0.1
6 0.37
7 0.37
8 -0.14
9 -0.14

>  <PUBCHEM_EFFECTIVE_ROTOR_COUNT>  (1) 
5

>  <PUBCHEM_PHARMACOPHORE_FEATURES>  (1) 
5
1 1 cation
1 3 donor
1 4 donor
4 2 3 4 17 cation
6 5 8 9 12 13 16 rings

>  <PUBCHEM_HEAVY_ATOM_COUNT>  (1) 
17

>  <PUBCHEM_ATOM_DEF_STEREO_COUNT>  (1) 
0

>  <PUBCHEM_ATOM_UDEF_STEREO_COUNT>  (1) 
0

>  <PUBCHEM_BOND_DEF_STEREO_COUNT>  (1) 
0

>  <PUBCHEM_BOND_UDEF_STEREO_COUNT>  (1) 
0

>  <PUBCHEM_ISOTOPIC_ATOM_COUNT>  (1) 
0

>  <PUBCHEM_COMPONENT_COUNT>  (1) 
1

>  <PUBCHEM_CACTVS_TAUTO_COUNT>  (1) 
2

>  <PUBCHEM_CONFORMER_ID>  (1) 
0000C1C600000002

>  <PUBCHEM_MMFF94_ENERGY>  (1) 
68.6444

>  <PUBCHEM_FEATURE_SELFOVERLAP>  (1) 
25.428

>  <PUBCHEM_SHAPE_FINGERPRINT>  (1) 
10062212 137 18271515429825073822
121448 382 18336537317544367475
12423570 1 13707220514454759819
14787075 74 18337677545958098323
14790565 3 17773323331753112193
15775835 57 18336267834148112588
16945 1 18060410331284572441
18186145 218 18262243213823703294
18981168 100 17829091806636818476
192875 21 18341608179805327600
19765921 60 18409165480907803091
20361792 2 11815606454705257262
20510252 161 18117284867801796098
20645476 183 18114172077495368096
20871999 31 17846486037875906149
21524375 3 18409452444873790940
22112679 90 17042331532253878442
22907989 373 17902820757022586812
23352939 185 17272292619998391119
23419403 2 17473552820404531411
23557571 272 17274525560510381610
23559900 14 17201068181186892406
305870 269 17968939669499247026
353137 74 18341894035310907521
394222 165 18121786023887843377
4340502 62 17895205346805723985
474 4 18261676973930711724
526903 126 18341895220479444017
7364860 26 17900538969494305635
81228 2 17534936230710760666
84936 31 15792830266266480960
9981440 41 18269267032142419706

>  <PUBCHEM_SHAPE_MULTIPOLES>  (1) 
329.93
5.9
2.75
1.49
4.68
0.9
-0.45
-3.59
2.49
-0.13
-0.98
-0.36
0.67
-0.65

>  <PUBCHEM_SHAPE_SELFOVERLAP>  (1) 
667.962

>  <PUBCHEM_SHAPE_VOLUME>  (1) 
191.2

>  <PUBCHEM_COORDINATE_TYPE>  (1) 
2
5
10

$$$$
