49608
     RDKit          3D

 15 15  0  0  1  0  0  0  0  0999 V2000
    0.5025   -0.6441    0.2820 N   0  0  0  0  0  0  0  0  0  0  0  0
   -3.0784    0.3876    0.4232 N   0  0  0  0  0  0  0  0  0  0  0  0
   -5.3409    0.8243    0.1849 N   0  0  0  0  0  0  0  0  0  0  0  0
   -4.3832   -0.5455   -1.3648 N   0  0  0  0  0  0  0  0  0  0  0  0
    1.6582   -0.3024    1.1083 C   0  0  0  0  0  0  0  0  0  0  0  0
    1.9058    1.2101    1.1953 C   0  0  0  0  0  0  0  0  0  0  0  0
    2.9133   -1.0928    0.7193 C   0  0  0  0  0  0  0  0  0  0  0  0
    2.2438    1.9378   -0.1018 C   0  0  0  0  0  0  0  0  0  0  0  0
    3.2975   -1.1565   -0.7585 C   0  0  0  0  0  0  0  0  0  0  0  0
    3.4892    1.4228   -0.8197 C   0  0  0  0  0  0  0  0  0  0  0  0
    3.2403    0.1275   -1.5811 C   0  0  0  0  0  0  0  0  0  0  0  0
   -0.6970    0.0110    0.7962 C   0  0  0  0  0  0  0  0  0  0  0  0
    0.3224   -2.0925    0.2404 C   0  0  0  0  0  0  0  0  0  0  0  0
   -1.8913   -0.3004   -0.0908 C   0  0  0  0  0  0  0  0  0  0  0  0
   -4.1822    0.2130   -0.2330 C   0  0  0  0  0  0  0  0  0  0  0  0
  1  5  1  0
  1 12  1  0
  1 13  1  0
  2 14  1  0
  2 15  2  3
  3 15  1  0
  4 15  1  0
  5  6  1  0
  5  7  1  0
  6  8  1  0
  7  9  1  0
  8 10  1  0
  9 11  1  0
 10 11  1  0
 12 14  1  0
M  END
>  <PUBCHEM_COMPOUND_CID>  (1) 
49608

>  <PUBCHEM_CONFORMER_RMSD>  (1) 
0.6

>  <PUBCHEM_CONFORMER_DIVERSEORDER>  (1) 
1
96
128
104
140
32
19
112
127
2
51
5
141
7
34
121
74
9
81
136
99
61
88
55
39
135
78
124
93
48
133
41
29
28
82
113
63
10
36
42
27
118
134
98
3
30
65
58
18
70
106
26
115
138
72
91
79
76
64
60
21
110
139
52
116
86
92
43
123
17
66
77
114
126
83
80
56
131
130
49
8
84
105
11
59
125
111
90
14
108
54
75
120
69
38
13
87
119
20
50
95
15
97
103
71
89
23
22
44
37
109
107
62
53
143
45
94
85
47
4
6
142
16
102
40
12
132
67
117
57
129
73
25
46
137
100
31
35
122
24
33
101
68

>  <PUBCHEM_MMFF94_PARTIAL_CHARGES>  (1) 
13
1 -0.81
12 0.27
13 0.27
14 0.25
15 0.55
2 -0.7
3 -0.85
36 0.4
37 0.4
38 0.4
39 0.4
4 -0.85
5 0.27

>  <PUBCHEM_EFFECTIVE_ROTOR_COUNT>  (1) 
5.4

>  <PUBCHEM_PHARMACOPHORE_FEATURES>  (1) 
5
1 1 cation
1 3 donor
1 4 donor
4 2 3 4 15 cation
7 5 6 7 8 9 10 11 rings

>  <PUBCHEM_HEAVY_ATOM_COUNT>  (1) 
15

>  <PUBCHEM_ATOM_DEF_STEREO_COUNT>  (1) 
0

>  <PUBCHEM_ATOM_UDEF_STEREO_COUNT>  (1) 
0

>  <PUBCHEM_BOND_DEF_STEREO_COUNT>  (1) 
0

>  <PUBCHEM_BOND_UDEF_STEREO_COUNT>  (1) 
0

>  <PUBCHEM_ISOTOPIC_ATOM_COUNT>  (1) 
0

>  <PUBCHEM_COMPONENT_COUNT>  (1) 
1

>  <PUBCHEM_CACTVS_TAUTO_COUNT>  (1) 
2

>  <PUBCHEM_CONFORMER_ID>  (1) 
0000C1C800000001

>  <PUBCHEM_MMFF94_ENERGY>  (1) 
39.8036

>  <PUBCHEM_FEATURE_SELFOVERLAP>  (1) 
25.428

>  <PUBCHEM_SHAPE_FINGERPRINT>  (1) 
10498660 4 18040717017063607493
11067466 332 9295287240501569434
13380536 305 18409450293290516954
13705890 14 15410896262331965882
14252887 29 11167944653913293462
14415576 193 18335417937661552497
15885798 251 11095893670015007531
16945 1 18196962000854208960
17134986 127 18189058758107049036
17834072 33 18410852175422530095
18186145 218 18409161117405678907
19862831 5 17989210343420845513
20279233 1 12679455404978217245
20645477 70 18408889520500730506
20871998 22 8934460522198508760
212847 35 18187082828010738017
21501925 9 10303818661333635763
22485316 2 12679453193091093929
231179 274 17312820506849826612
23402655 69 18342179985390294108
23559900 14 14779817205404784587
23590187 173 17458336442511070573
23590187 302 18272936007200620745
251288 83 8574715684877710852
3060560 45 18412262822385588158
42 15 10087645892405375661
449060 62 17821450161789345301
4990 188 17918277558283690471
522135 26 18408886217680974673
5281201 14 18115585942148287143
5374978 207 11746930984652539255
633830 44 18412262835565668151
9882013 296 11963390764812532951

>  <PUBCHEM_SHAPE_MULTIPOLES>  (1) 
288.77
9.01
1.7
1.26
13.69
0.04
-0.19
-2.01
-2.87
-1.51
0.05
-0.66
-0.04
-0.35

>  <PUBCHEM_SHAPE_SELFOVERLAP>  (1) 
557.689

>  <PUBCHEM_SHAPE_VOLUME>  (1) 
171.2

>  <PUBCHEM_COORDINATE_TYPE>  (1) 
2
5
10

$$$$
