49609
     RDKit          3D

 16 16  0  0  1  0  0  0  0  0999 V2000
   -0.0043   -0.8357    0.3665 N   0  0  0  0  0  0  0  0  0  0  0  0
    3.4036    0.6538    0.1709 N   0  0  0  0  0  0  0  0  0  0  0  0
    5.6042    1.2941   -0.1702 N   0  0  0  0  0  0  0  0  0  0  0  0
    4.9634   -0.7115   -1.0428 N   0  0  0  0  0  0  0  0  0  0  0  0
   -1.2610   -0.3467    0.9428 C   0  0  0  0  0  0  0  0  0  0  0  0
   -2.4157   -1.3210    0.6694 C   0  0  0  0  0  0  0  0  0  0  0  0
   -1.4666    1.1123    0.5089 C   0  0  0  0  0  0  0  0  0  0  0  0
   -2.8198   -1.5596   -0.7851 C   0  0  0  0  0  0  0  0  0  0  0  0
   -2.8259    1.7094    0.8813 C   0  0  0  0  0  0  0  0  0  0  0  0
   -3.3458   -0.3628   -1.5767 C   0  0  0  0  0  0  0  0  0  0  0  0
   -3.8122    1.8158   -0.2842 C   0  0  0  0  0  0  0  0  0  0  0  0
   -4.3684    0.5030   -0.8399 C   0  0  0  0  0  0  0  0  0  0  0  0
    1.0658    0.1342    0.5876 C   0  0  0  0  0  0  0  0  0  0  0  0
    0.3479   -2.1309    0.9433 C   0  0  0  0  0  0  0  0  0  0  0  0
    2.3622   -0.3532   -0.0438 C   0  0  0  0  0  0  0  0  0  0  0  0
    4.5726    0.3989   -0.3281 C   0  0  0  0  0  0  0  0  0  0  0  0
  1  5  1  0
  1 13  1  0
  1 14  1  0
  2 15  1  0
  2 16  2  3
  3 16  1  0
  4 16  1  0
  5  6  1  0
  5  7  1  0
  6  8  1  0
  7  9  1  0
  8 10  1  0
  9 11  1  0
 10 12  1  0
 11 12  1  0
 13 15  1  0
M  END
>  <PUBCHEM_COMPOUND_CID>  (1) 
49609

>  <PUBCHEM_CONFORMER_RMSD>  (1) 
0.8

>  <PUBCHEM_CONFORMER_DIVERSEORDER>  (1) 
3
10
26
42
41
9
13
7
37
2
28
27
4
38
48
61
32
21
31
17
5
51
36
45
40
49
34
55
6
57
52
24
53
30
14
39
47
44
63
12
18
15
20
35
19
23
22
54
56
64
8
65
43
11
58
16
46
29
62
25
60
1
59
33
50

>  <PUBCHEM_MMFF94_PARTIAL_CHARGES>  (1) 
13
1 -0.81
13 0.27
14 0.27
15 0.25
16 0.55
2 -0.7
3 -0.85
39 0.4
4 -0.85
40 0.4
41 0.4
42 0.4
5 0.27

>  <PUBCHEM_EFFECTIVE_ROTOR_COUNT>  (1) 
5.6

>  <PUBCHEM_PHARMACOPHORE_FEATURES>  (1) 
4
1 1 cation
1 3 donor
1 4 donor
4 2 3 4 16 cation

>  <PUBCHEM_HEAVY_ATOM_COUNT>  (1) 
16

>  <PUBCHEM_ATOM_DEF_STEREO_COUNT>  (1) 
0

>  <PUBCHEM_ATOM_UDEF_STEREO_COUNT>  (1) 
0

>  <PUBCHEM_BOND_DEF_STEREO_COUNT>  (1) 
0

>  <PUBCHEM_BOND_UDEF_STEREO_COUNT>  (1) 
0

>  <PUBCHEM_ISOTOPIC_ATOM_COUNT>  (1) 
0

>  <PUBCHEM_COMPONENT_COUNT>  (1) 
1

>  <PUBCHEM_CACTVS_TAUTO_COUNT>  (1) 
2

>  <PUBCHEM_CONFORMER_ID>  (1) 
0000C1C900000003

>  <PUBCHEM_MMFF94_ENERGY>  (1) 
47.7679

>  <PUBCHEM_FEATURE_SELFOVERLAP>  (1) 
20.353

>  <PUBCHEM_SHAPE_FINGERPRINT>  (1) 
10014705 185 18259987080377791392
10756046 5 18128816335253053311
11046707 91 11095885960179056298
11370993 144 12540959777650091028
11543360 7 17489867154920142704
12251169 10 7853572426404917179
13675066 3 13262393350115799962
14123260 362 18041001730350531781
14251758 9 16588293957342185498
14251764 38 18341330101900477832
14251764 75 17907297650771248257
17780758 139 10737275866545934204
17870717 6 17775014478628796084
1813 80 12103567528091863072
18186145 218 18259706696691694826
193927 3 13110964257905184188
19784866 240 12463278229234553249
200 152 16415479354552943794
20281475 54 9655576310186817906
20300324 65 18201717366573528021
20645477 70 17632026256482175358
20871999 31 17989197149603104573
21499 59 18187080624687260051
21637258 2 14548440467429520805
23402539 116 18411980265419854140
23402655 69 18343303648030580084
23557571 272 18340210803299807751
23559900 14 18342460340314054784
24859131 72 8358254865356776009
27216 239 15357694176430362847
4028521 119 18409445860620588173
441001 317 18410009966184014800
53428517 29 12757151268578119252
57265010 4 11891332037008831413
633830 44 18335424539137322662

>  <PUBCHEM_SHAPE_MULTIPOLES>  (1) 
309.35
10.48
1.89
1.16
14.55
0.18
0.18
-4.01
4.11
-1.2
-0.34
-0.72
0.2
-0.3

>  <PUBCHEM_SHAPE_SELFOVERLAP>  (1) 
594.84

>  <PUBCHEM_SHAPE_VOLUME>  (1) 
185.3

>  <PUBCHEM_COORDINATE_TYPE>  (1) 
2
5
10

$$$$
