49622
     RDKit          3D

 16 16  0  0  1  0  0  0  0  0999 V2000
    0.6012   -1.9140   -1.2589 O   0  0  0  0  0  0  0  0  0  0  0  0
    2.9777    1.0293    0.2514 N   0  0  0  0  0  0  0  0  0  0  0  0
    0.1661    0.0921    0.0234 C   0  0  0  0  0  0  0  0  0  0  0  0
    0.9009    0.9242   -1.0497 C   0  0  0  0  0  0  0  0  0  0  0  0
    2.4135    0.6856   -1.0493 C   0  0  0  0  0  0  0  0  0  0  0  0
   -1.3306    0.3339    0.0449 C   0  0  0  0  0  0  0  0  0  0  0  0
    0.4645   -1.4021   -0.1475 C   0  0  0  0  0  0  0  0  0  0  0  0
    0.5534   -2.2210    1.1329 C   0  0  0  0  0  0  0  0  0  0  0  0
   -1.8295    1.3982    0.7731 C   0  0  0  0  0  0  0  0  0  0  0  0
   -2.1597   -0.5153   -0.6645 C   0  0  0  0  0  0  0  0  0  0  0  0
    4.4079    0.7203    0.2901 C   0  0  0  0  0  0  0  0  0  0  0  0
    2.7553    2.4446    0.5511 C   0  0  0  0  0  0  0  0  0  0  0  0
    0.8818   -3.6801    0.8709 C   0  0  0  0  0  0  0  0  0  0  0  0
   -3.2063    1.6210    0.7928 C   0  0  0  0  0  0  0  0  0  0  0  0
   -3.5365   -0.2924   -0.6448 C   0  0  0  0  0  0  0  0  0  0  0  0
   -4.0598    0.7757    0.0839 C   0  0  0  0  0  0  0  0  0  0  0  0
  1  7  2  0
  2  5  1  0
  2 11  1  0
  2 12  1  0
  3  4  1  0
  3  6  1  0
  3  7  1  0
  4  5  1  0
  6  9  2  0
  6 10  1  0
  7  8  1  0
  8 13  1  0
  9 14  1  0
 10 15  2  0
 14 16  2  0
 15 16  1  0
M  END
>  <PUBCHEM_COMPOUND_CID>  (1) 
49622

>  <PUBCHEM_CONFORMER_RMSD>  (1) 
0.8

>  <PUBCHEM_CONFORMER_DIVERSEORDER>  (1) 
12
38
14
18
47
39
7
37
3
21
42
45
15
48
24
44
26
20
36
41
27
46
29
23
16
43
49
5
31
17
10
4
40
22
8
6
19
33
9
25
32
35
28
1
34
13
30
11
2

>  <PUBCHEM_MMFF94_PARTIAL_CHARGES>  (1) 
19
1 -0.57
10 -0.15
11 0.27
12 0.27
14 -0.15
15 -0.15
16 -0.15
2 -0.81
24 0.15
25 0.15
3 0.2
35 0.15
36 0.15
37 0.15
5 0.27
6 -0.14
7 0.45
8 0.06
9 -0.15

>  <PUBCHEM_EFFECTIVE_ROTOR_COUNT>  (1) 
6

>  <PUBCHEM_PHARMACOPHORE_FEATURES>  (1) 
4
1 1 acceptor
1 13 hydrophobe
1 2 cation
6 6 9 10 14 15 16 rings

>  <PUBCHEM_HEAVY_ATOM_COUNT>  (1) 
16

>  <PUBCHEM_ATOM_DEF_STEREO_COUNT>  (1) 
0

>  <PUBCHEM_ATOM_UDEF_STEREO_COUNT>  (1) 
1

>  <PUBCHEM_BOND_DEF_STEREO_COUNT>  (1) 
0

>  <PUBCHEM_BOND_UDEF_STEREO_COUNT>  (1) 
0

>  <PUBCHEM_ISOTOPIC_ATOM_COUNT>  (1) 
0

>  <PUBCHEM_COMPONENT_COUNT>  (1) 
1

>  <PUBCHEM_CACTVS_TAUTO_COUNT>  (1) 
3

>  <PUBCHEM_CONFORMER_ID>  (1) 
0000C1D60000000C

>  <PUBCHEM_MMFF94_ENERGY>  (1) 
36.8871

>  <PUBCHEM_FEATURE_SELFOVERLAP>  (1) 
20.297

>  <PUBCHEM_SHAPE_FINGERPRINT>  (1) 
11578080 2 17171801341553826318
12346645 44 18343019982377981349
12507560 18 18273216383451785056
12592029 89 18334575728591686859
12788726 201 17613442559620108986
13380535 76 18411141346231613735
14022349 108 18115578245688647314
14178342 30 18187380826211803313
14787075 74 17911234237352030359
15309172 13 18114463443660604220
15490181 8 18192733317034107870
15502708 68 18260261919608755334
15536298 74 18129947775862548982
15775835 57 18413109459092073472
15852999 172 17675928707237557843
15906896 17 18050569835307755262
16945 1 18058745709171301709
17862501 102 18343011203538525444
18186145 218 18271812340793206588
18915476 22 17970886900587241479
19765921 60 18342740732246967441
201361 129 18340491058352546249
204376 136 18260552263671781300
20510252 161 18051416463318252611
20645476 183 17824557493598145740
21524375 3 18413108381091965196
23402539 116 17988634246351407508
23558518 356 18052248798084342052
23559900 14 17415559796572064655
298252 57 17703789262253935190
305870 269 18336547122849156881
3071541 236 18118964943075269162
3250762 1 17465081761795933428
34934 24 18201436948581070701
351380 180 18059571425372098280
4340502 62 18260274053719463987
43471831 8 18408038498511186586
474 4 18408046208051446225
5104073 3 18121798140698013113
6138700 20 18268998575470481118
6333272 397 18340769363464304081
633830 44 18343305881023593572
7364860 26 18197783202068197751
81228 2 17612316655106841906
81539 233 18260547796800246623
9981440 41 17484223516612476856

>  <PUBCHEM_SHAPE_MULTIPOLES>  (1) 
318.42
6.48
3.02
1.12
0.44
3.04
-0.09
-4.28
0.42
-1.83
1.14
-0.08
0.18
-0.5

>  <PUBCHEM_SHAPE_SELFOVERLAP>  (1) 
638.526

>  <PUBCHEM_SHAPE_VOLUME>  (1) 
188.7

>  <PUBCHEM_COORDINATE_TYPE>  (1) 
2
5
10

$$$$
