49627
     RDKit          3D

 11 10  0  0  1  0  0  0  0  0999 V2000
    1.4195   -1.0518   -0.6940 N   0  0  0  0  0  0  0  0  0  0  0  0
    1.0295    1.2403    0.1621 C   0  0  0  0  0  0  0  0  0  0  0  0
    1.3718   -0.2327    0.5213 C   0  0  0  0  0  0  0  0  0  0  0  0
   -0.3629    1.3965   -0.4941 C   0  0  0  0  0  0  0  0  0  0  0  0
    2.1279    1.8538   -0.7199 C   0  0  0  0  0  0  0  0  0  0  0  0
    2.6868   -0.4128    1.2810 C   0  0  0  0  0  0  0  0  0  0  0  0
   -1.4795    0.8839    0.3769 C   0  0  0  0  0  0  0  0  0  0  0  0
   -2.4145   -0.0366    0.0737 C   0  0  0  0  0  0  0  0  0  0  0  0
    1.6050   -2.4536   -0.3590 C   0  0  0  0  0  0  0  0  0  0  0  0
   -3.4772   -0.4003    1.0767 C   0  0  0  0  0  0  0  0  0  0  0  0
   -2.5064   -0.7867   -1.2248 C   0  0  0  0  0  0  0  0  0  0  0  0
  1  3  1  0
  1  9  1  0
  2  3  1  0
  2  4  1  0
  2  5  1  0
  3  6  1  0
  4  7  1  0
  7  8  2  3
  8 10  1  0
  8 11  1  0
M  END
>  <PUBCHEM_COMPOUND_CID>  (1) 
49627

>  <PUBCHEM_CONFORMER_RMSD>  (1) 
0.6

>  <PUBCHEM_CONFORMER_DIVERSEORDER>  (1) 
2
31
95
73
36
24
51
100
5
81
9
75
74
63
65
17
77
82
68
58
69
42
84
70
64
98
43
41
19
11
22
18
30
52
60
54
48
76
89
26
34
102
32
96
25
85
6
79
67
44
71
86
12
57
21
23
90
29
61
47
13
66
53
59
93
46
8
33
101
1
35
7
27
40
50
94
87
80
88
49
39
14
55
97
99
4
28
38
62
10
3
37
45
15
20
91
56
83
16
92
78
72

>  <PUBCHEM_MMFF94_PARTIAL_CHARGES>  (1) 
10
1 -0.9
10 0.14
11 0.14
22 0.36
23 0.15
3 0.27
4 0.14
7 -0.29
8 -0.28
9 0.27

>  <PUBCHEM_EFFECTIVE_ROTOR_COUNT>  (1) 
4

>  <PUBCHEM_PHARMACOPHORE_FEATURES>  (1) 
4
1 1 cation
1 1 donor
1 5 hydrophobe
3 8 10 11 hydrophobe

>  <PUBCHEM_HEAVY_ATOM_COUNT>  (1) 
11

>  <PUBCHEM_ATOM_DEF_STEREO_COUNT>  (1) 
0

>  <PUBCHEM_ATOM_UDEF_STEREO_COUNT>  (1) 
2

>  <PUBCHEM_BOND_DEF_STEREO_COUNT>  (1) 
0

>  <PUBCHEM_BOND_UDEF_STEREO_COUNT>  (1) 
0

>  <PUBCHEM_ISOTOPIC_ATOM_COUNT>  (1) 
0

>  <PUBCHEM_COMPONENT_COUNT>  (1) 
1

>  <PUBCHEM_CACTVS_TAUTO_COUNT>  (1) 
1

>  <PUBCHEM_CONFORMER_ID>  (1) 
0000C1DB00000002

>  <PUBCHEM_MMFF94_ENERGY>  (1) 
11.7784

>  <PUBCHEM_FEATURE_SELFOVERLAP>  (1) 
20.297

>  <PUBCHEM_SHAPE_FINGERPRINT>  (1) 
12932764 1 17847065510405328657
15279307 12 18129953402401711975
15775835 57 17489868254226211155
16945 1 18342171176354256740
17990270 104 18336267846916748848
19766037 51 18119273712622185815
20201158 50 18334286548681166555
20645477 70 18261388979705446027
20711985 344 17612301957617848564
20871998 22 18264493892513787146
23552423 10 18411421683120995397
23557571 272 15285631157801371173
2748010 2 18052248493036149742
3248919 1 18410008832333695705
528862 383 18261678189332590493
81228 2 17830162520134970832

>  <PUBCHEM_SHAPE_MULTIPOLES>  (1) 
221.39
4.82
2.06
1.17
3
0.53
0.07
0.92
1.02
-1.57
-0.58
0.16
0.17
-0.28

>  <PUBCHEM_SHAPE_SELFOVERLAP>  (1) 
403.702

>  <PUBCHEM_SHAPE_VOLUME>  (1) 
142.2

>  <PUBCHEM_COORDINATE_TYPE>  (1) 
2
5
10

$$$$
