49631
     RDKit          3D

 29 32  0  0  0  0  0  0  0  0999 V2000
    1.4410   -0.0072    0.1293 O   0  0  0  0  0  0  0  0  0  0  0  0
    0.3477   -0.5591    2.0881 O   0  0  0  0  0  0  0  0  0  0  0  0
    5.1112    0.1553    0.4528 N   0  0  0  0  0  0  0  0  0  0  0  0
   -0.9189   -1.1942   -1.0330 C   0  0  0  0  0  0  0  0  0  0  0  0
   -0.8976   -0.1343    0.0668 C   0  0  0  0  0  0  0  0  0  0  0  0
   -0.7509   -2.5980   -0.4360 C   0  0  0  0  0  0  0  0  0  0  0  0
   -2.2136   -1.1000   -1.8516 C   0  0  0  0  0  0  0  0  0  0  0  0
   -2.1397   -0.2110    0.9519 C   0  0  0  0  0  0  0  0  0  0  0  0
   -1.0227    1.2757   -0.5073 C   0  0  0  0  0  0  0  0  0  0  0  0
   -0.8222   -3.6800   -1.5111 C   0  0  0  0  0  0  0  0  0  0  0  0
   -2.2825   -2.1846   -2.9243 C   0  0  0  0  0  0  0  0  0  0  0  0
   -2.1063   -3.5777   -2.3282 C   0  0  0  0  0  0  0  0  0  0  0  0
   -2.8736    0.9948    0.8760 C   0  0  0  0  0  0  0  0  0  0  0  0
   -2.1897    1.9050   -0.0172 C   0  0  0  0  0  0  0  0  0  0  0  0
    0.3465   -0.2652    0.9003 C   0  0  0  0  0  0  0  0  0  0  0  0
   -2.5704   -1.2630    1.7463 C   0  0  0  0  0  0  0  0  0  0  0  0
   -0.1718    1.9284   -1.3867 C   0  0  0  0  0  0  0  0  0  0  0  0
   -4.0462    1.1542    1.5972 C   0  0  0  0  0  0  0  0  0  0  0  0
   -2.5122    3.1954   -0.4061 C   0  0  0  0  0  0  0  0  0  0  0  0
   -3.7515   -1.1015    2.4725 C   0  0  0  0  0  0  0  0  0  0  0  0
   -0.4975    3.2282   -1.7780 C   0  0  0  0  0  0  0  0  0  0  0  0
   -4.4825    0.0953    2.3985 C   0  0  0  0  0  0  0  0  0  0  0  0
   -1.6564    3.8555   -1.2925 C   0  0  0  0  0  0  0  0  0  0  0  0
    2.7014   -0.0965    0.8012 C   0  0  0  0  0  0  0  0  0  0  0  0
    3.8083    0.2173   -0.1926 C   0  0  0  0  0  0  0  0  0  0  0  0
    5.3472   -1.1756    1.0175 C   0  0  0  0  0  0  0  0  0  0  0  0
    6.1752    0.4985   -0.4937 C   0  0  0  0  0  0  0  0  0  0  0  0
    6.6749   -1.2322    1.7537 C   0  0  0  0  0  0  0  0  0  0  0  0
    5.9528    1.8764   -1.0939 C   0  0  0  0  0  0  0  0  0  0  0  0
  1 15  1  0
  1 24  1  0
  2 15  2  0
  3 25  1  0
  3 26  1  0
  3 27  1  0
  4  5  1  0
  4  6  1  0
  4  7  1  0
  5  8  1  0
  5  9  1  0
  5 15  1  0
  6 10  1  0
  7 11  1  0
  8 13  1  0
  8 16  2  0
  9 14  2  0
  9 17  1  0
 10 12  1  0
 11 12  1  0
 13 14  1  0
 13 18  2  0
 14 19  1  0
 16 20  1  0
 17 21  2  0
 18 22  1  0
 19 23  2  0
 20 22  2  0
 21 23  1  0
 24 25  1  0
 26 28  1  0
 27 29  1  0
M  END
>  <PUBCHEM_COMPOUND_CID>  (1) 
49631

>  <PUBCHEM_CONFORMER_RMSD>  (1) 
1

>  <PUBCHEM_CONFORMER_DIVERSEORDER>  (1) 
1
33
14
34
15
32
17
26
41
19
35
45
27
8
2
39
11
44
6
16
40
3
20
21
28
12
25
38
22
10
23
5
37
36
30
7
18
43
13
46
42
29
24
4
9
31

>  <PUBCHEM_MMFF94_PARTIAL_CHARGES>  (1) 
27
1 -0.43
15 0.66
16 -0.15
17 -0.15
18 -0.15
19 -0.15
2 -0.57
20 -0.15
21 -0.15
22 -0.15
23 -0.15
24 0.28
25 0.27
26 0.27
27 0.27
3 -0.81
41 0.15
42 0.15
43 0.15
44 0.15
45 0.15
46 0.15
47 0.15
48 0.15
5 0.35
8 -0.14
9 -0.14

>  <PUBCHEM_EFFECTIVE_ROTOR_COUNT>  (1) 
9.4

>  <PUBCHEM_PHARMACOPHORE_FEATURES>  (1) 
6
1 2 acceptor
1 3 cation
5 5 8 9 13 14 rings
6 4 6 7 10 11 12 rings
6 8 13 16 18 20 22 rings
6 9 14 17 19 21 23 rings

>  <PUBCHEM_HEAVY_ATOM_COUNT>  (1) 
29

>  <PUBCHEM_ATOM_DEF_STEREO_COUNT>  (1) 
0

>  <PUBCHEM_ATOM_UDEF_STEREO_COUNT>  (1) 
0

>  <PUBCHEM_BOND_DEF_STEREO_COUNT>  (1) 
0

>  <PUBCHEM_BOND_UDEF_STEREO_COUNT>  (1) 
0

>  <PUBCHEM_ISOTOPIC_ATOM_COUNT>  (1) 
0

>  <PUBCHEM_COMPONENT_COUNT>  (1) 
1

>  <PUBCHEM_CACTVS_TAUTO_COUNT>  (1) 
1

>  <PUBCHEM_CONFORMER_ID>  (1) 
0000C1DF00000001

>  <PUBCHEM_MMFF94_ENERGY>  (1) 
83.2101

>  <PUBCHEM_FEATURE_SELFOVERLAP>  (1) 
30.606

>  <PUBCHEM_SHAPE_FINGERPRINT>  (1) 
10165383 225 18060145297252949105
10906281 52 18117008689274518573
11315181 36 9151167659058986272
11443803 9 17689112809443283589
11578080 2 17117245752369843801
12403814 3 18410293605401996057
12422481 6 18267042577636265659
12616971 3 18409727366553626698
12633257 1 17988931101954112504
13004483 165 17056384841493231983
13009979 54 17698728339381299735
131258 43 17266102464160190116
14068700 675 17628903818936142639
14840074 17 18410300236878999998
14856354 85 17896056424223804074
14910302 57 18060422400607002558
15775530 1 17761789364092103197
15849732 13 18341056328105200463
17844677 252 17895203160662303464
17980427 23 18338817666781460625
17980427 26 17251487747082655909
20600515 1 15430623717185034339
21033648 29 17774449269770899848
21120745 212 17984424315017552596
21716022 299 17118314945417160055
23419403 2 17550409340568906951
23559900 14 17683273286039834415
23598288 3 18261386728820706356
255183 313 18201719544153693099
3729539 64 17412210676033650822
44880168 125 18202010881050588318
497634 4 17631726213939908816
5080951 261 17487587854705551342
57527452 28 17704065227747558375
59755656 520 17131841927725336643
9862522 239 18339635621052381650
9925002 15 18055080023583269213
9981440 41 17982157925205737809

>  <PUBCHEM_SHAPE_MULTIPOLES>  (1) 
580.09
10.98
4.06
2.65
28.37
0.41
-0.09
0.43
5.72
-3.39
-3.84
-2.63
-1.45
-2.01

>  <PUBCHEM_SHAPE_SELFOVERLAP>  (1) 
1248.741

>  <PUBCHEM_SHAPE_VOLUME>  (1) 
320.1

>  <PUBCHEM_COORDINATE_TYPE>  (1) 
2
5
10

$$$$
