49651
     RDKit          3D

 25 25  0  0  0  0  0  0  0  0999 V2000
   -0.5023    2.8120    1.4006 I   0  0  0  0  0  0  0  0  0  0  0  0
   -1.7096   -3.1057    0.5017 I   0  0  0  0  0  0  0  0  0  0  0  0
    3.9972   -1.0239   -0.1144 I   0  0  0  0  0  0  0  0  0  0  0  0
   -2.5836   -0.0555    2.3312 O   0  0  0  0  0  0  0  0  0  0  0  0
    1.8610   -3.8460    0.8355 O   0  0  0  0  0  0  0  0  0  0  0  0
    2.3962    2.5037   -1.5353 O   0  0  0  0  0  0  0  0  0  0  0  0
    4.1513    4.3660   -1.0374 O   0  0  0  0  0  0  0  0  0  0  0  0
   -4.1886    1.0035   -2.1421 O   0  0  0  0  0  0  0  0  0  0  0  0
   -6.2232    1.3305   -1.1927 O   0  0  0  0  0  0  0  0  0  0  0  0
    2.4226    1.6757    0.6689 N   0  0  0  0  0  0  0  0  0  0  0  0
   -2.9778    0.3894    0.0900 N   0  0  0  0  0  0  0  0  0  0  0  0
    1.4455   -3.4332   -1.4082 N   0  0  0  0  0  0  0  0  0  0  0  0
   -0.7528   -0.2078    0.8743 C   0  0  0  0  0  0  0  0  0  0  0  0
    1.5057    0.6151    0.6312 C   0  0  0  0  0  0  0  0  0  0  0  0
    1.0284   -1.7266    0.2759 C   0  0  0  0  0  0  0  0  0  0  0  0
    0.1592    0.8470    0.9116 C   0  0  0  0  0  0  0  0  0  0  0  0
   -0.3182   -1.4946    0.5564 C   0  0  0  0  0  0  0  0  0  0  0  0
    1.9403   -0.6717    0.3133 C   0  0  0  0  0  0  0  0  0  0  0  0
   -2.1659    0.0358    1.1684 C   0  0  0  0  0  0  0  0  0  0  0  0
    1.4847   -3.0763   -0.0597 C   0  0  0  0  0  0  0  0  0  0  0  0
    2.7960    2.5249   -0.3752 C   0  0  0  0  0  0  0  0  0  0  0  0
   -4.3864    0.6843    0.2228 C   0  0  0  0  0  0  0  0  0  0  0  0
    3.8181    3.5498    0.0663 C   0  0  0  0  0  0  0  0  0  0  0  0
    1.8399   -4.7360   -1.8941 C   0  0  0  0  0  0  0  0  0  0  0  0
   -5.0378    1.0392   -1.0890 C   0  0  0  0  0  0  0  0  0  0  0  0
  1 16  1  0
  2 17  1  0
  3 18  1  0
  4 19  2  0
  5 20  2  0
  6 21  2  0
  7 23  1  0
  8 25  1  0
  9 25  2  0
 10 14  1  0
 10 21  1  0
 11 19  1  0
 11 22  1  0
 12 20  1  0
 12 24  1  0
 13 16  2  0
 13 17  1  0
 13 19  1  0
 14 16  1  0
 14 18  2  0
 15 17  2  0
 15 18  1  0
 15 20  1  0
 21 23  1  0
 22 25  1  0
M  END
>  <PUBCHEM_COMPOUND_CID>  (1) 
49651

>  <PUBCHEM_CONFORMER_RMSD>  (1) 
1

>  <PUBCHEM_CONFORMER_DIVERSEORDER>  (1) 
1
11
12
3
13
6
8
10
5
9
7
2
4

>  <PUBCHEM_MMFF94_PARTIAL_CHARGES>  (1) 
30
1 -0.08
10 -0.55
11 -0.73
12 -0.73
13 0.09
14 0.12
15 0.09
16 0.08
17 0.08
18 0.08
19 0.54
2 -0.08
20 0.54
21 0.57
22 0.36
23 0.34
24 0.3
25 0.66
26 0.37
27 0.37
3 -0.08
30 0.37
36 0.4
37 0.5
4 -0.57
5 -0.57
6 -0.57
7 -0.68
8 -0.65
9 -0.57

>  <PUBCHEM_EFFECTIVE_ROTOR_COUNT>  (1) 
9

>  <PUBCHEM_PHARMACOPHORE_FEATURES>  (1) 
15
1 1 hydrophobe
1 10 donor
1 11 donor
1 12 donor
1 2 hydrophobe
1 3 hydrophobe
1 4 acceptor
1 5 acceptor
1 6 acceptor
1 7 acceptor
1 7 donor
1 8 acceptor
1 9 acceptor
3 8 9 25 anion
6 13 14 15 16 17 18 rings

>  <PUBCHEM_HEAVY_ATOM_COUNT>  (1) 
25

>  <PUBCHEM_ATOM_DEF_STEREO_COUNT>  (1) 
0

>  <PUBCHEM_ATOM_UDEF_STEREO_COUNT>  (1) 
0

>  <PUBCHEM_BOND_DEF_STEREO_COUNT>  (1) 
0

>  <PUBCHEM_BOND_UDEF_STEREO_COUNT>  (1) 
0

>  <PUBCHEM_ISOTOPIC_ATOM_COUNT>  (1) 
0

>  <PUBCHEM_COMPONENT_COUNT>  (1) 
1

>  <PUBCHEM_CACTVS_TAUTO_COUNT>  (1) 
8

>  <PUBCHEM_CONFORMER_ID>  (1) 
0000C1F300000001

>  <PUBCHEM_MMFF94_ENERGY>  (1) 
92.5266

>  <PUBCHEM_FEATURE_SELFOVERLAP>  (1) 
76.194

>  <PUBCHEM_SHAPE_FINGERPRINT>  (1) 
10794284 68 12813642122850565026
10930396 42 17975658803307426362
12160290 23 17621886808747174010
13140716 1 18267886019462323810
13583140 156 17603872199488629355
13911987 19 18196098952461370961
140371 6 18340492149358700706
14114206 34 17252615394445439286
14508225 48 17907862795056403166
14790565 3 17476104765422921249
15842332 3 17560252306068160897
16945 1 18268729241664449666
17980427 26 17169528887685578056
20715895 44 18334847325139017232
21304303 282 17766816692163365070
2334 1 18125733528314051850
23559900 14 18413388731135501714
238 59 18337669716032212251
2748010 2 18197792191751389714
3057174 1 18341620372858525406
350125 39 17834405888131259513
352729 6 18341342175015935474
376196 1 18187921832650172217
46194498 28 18263352617373293525
495365 180 18411128169267032440
59554788 191 18412543249670327442
633830 44 17843434909629781368

>  <PUBCHEM_SHAPE_MULTIPOLES>  (1) 
500.14
8.52
6
1.65
10.68
2.46
-0.36
-6.4
-4.61
-7.5
-1.95
1.15
-0.09
0.45

>  <PUBCHEM_SHAPE_SELFOVERLAP>  (1) 
975.246

>  <PUBCHEM_SHAPE_VOLUME>  (1) 
310.1

>  <PUBCHEM_COORDINATE_TYPE>  (1) 
2
5
10

$$$$
