49662
     RDKit          3D

 10 10  0  0  1  0  0  0  0  0999 V2000
   -2.1720   -0.5048    0.6853 N   0  0  0  0  0  0  0  0  0  0  0  0
    0.8149   -0.0981    0.6334 C   0  0  0  0  0  0  0  0  0  0  0  0
   -0.2144    0.9227    0.1642 C   0  0  0  0  0  0  0  0  0  0  0  0
    2.1459    0.5504    1.0428 C   0  0  0  0  0  0  0  0  0  0  0  0
   -1.5186    0.2927   -0.3525 C   0  0  0  0  0  0  0  0  0  0  0  0
    3.0944    0.3712   -0.1440 C   0  0  0  0  0  0  0  0  0  0  0  0
    1.2334   -1.0132   -0.4762 C   0  0  0  0  0  0  0  0  0  0  0  0
    2.4759   -0.7576   -0.8963 C   0  0  0  0  0  0  0  0  0  0  0  0
   -2.4870    1.3770   -0.8228 C   0  0  0  0  0  0  0  0  0  0  0  0
   -3.3726   -1.1404    0.1661 C   0  0  0  0  0  0  0  0  0  0  0  0
  1  5  1  0
  1 10  1  0
  2  3  1  0
  2  4  1  0
  2  7  1  0
  3  5  1  0
  4  6  1  0
  5  9  1  0
  6  8  1  0
  7  8  2  0
M  END
>  <PUBCHEM_COMPOUND_CID>  (1) 
49662

>  <PUBCHEM_CONFORMER_RMSD>  (1) 
0.6

>  <PUBCHEM_CONFORMER_DIVERSEORDER>  (1) 
4
15
21
8
3
22
14
7
20
18
24
16
17
19
2
9
11
10
5
23
6
12
13
1

>  <PUBCHEM_MMFF94_PARTIAL_CHARGES>  (1) 
10
1 -0.9
10 0.27
19 0.15
2 0.14
20 0.15
24 0.36
5 0.27
6 0.14
7 -0.29
8 -0.29

>  <PUBCHEM_EFFECTIVE_ROTOR_COUNT>  (1) 
3.6

>  <PUBCHEM_PHARMACOPHORE_FEATURES>  (1) 
3
1 1 cation
1 1 donor
5 2 4 6 7 8 rings

>  <PUBCHEM_HEAVY_ATOM_COUNT>  (1) 
10

>  <PUBCHEM_ATOM_DEF_STEREO_COUNT>  (1) 
0

>  <PUBCHEM_ATOM_UDEF_STEREO_COUNT>  (1) 
2

>  <PUBCHEM_BOND_DEF_STEREO_COUNT>  (1) 
0

>  <PUBCHEM_BOND_UDEF_STEREO_COUNT>  (1) 
0

>  <PUBCHEM_ISOTOPIC_ATOM_COUNT>  (1) 
0

>  <PUBCHEM_COMPONENT_COUNT>  (1) 
1

>  <PUBCHEM_CACTVS_TAUTO_COUNT>  (1) 
1

>  <PUBCHEM_CONFORMER_ID>  (1) 
0000C1FE00000004

>  <PUBCHEM_MMFF94_ENERGY>  (1) 
10.7903

>  <PUBCHEM_FEATURE_SELFOVERLAP>  (1) 
15.223

>  <PUBCHEM_SHAPE_FINGERPRINT>  (1) 
10857977 72 18409162246718333769
11062470 55 14129051543126941771
12716758 59 18116149974322696913
12897270 3 18340488867971901260
12932741 1 18342732983951976317
12932764 1 17603868849382618892
14325111 11 18334293154367027040
15775835 57 16515968077291339692
17844478 74 18343308080157163857
20201158 50 18412826897572974507
20279233 1 18343012281459239759
20281407 28 18409172142666050531
20645477 70 17560232514489504823
20715346 28 18273206504378092325
23552423 10 17241599516522169531
29004967 10 18059856151522487904
3248919 1 18201149953890675392
5084963 1 18410019831538984914
57812782 119 8718539489450302885

>  <PUBCHEM_SHAPE_MULTIPOLES>  (1) 
200.81
5.32
1.26
0.99
1.51
0.02
-0.01
-0.64
0.3
0.6
0.16
-0.18
0.05
0.79

>  <PUBCHEM_SHAPE_SELFOVERLAP>  (1) 
389.318

>  <PUBCHEM_SHAPE_VOLUME>  (1) 
123.3

>  <PUBCHEM_COORDINATE_TYPE>  (1) 
2
5
10

$$$$
