49664
     RDKit          3D

 11 11  0  0  1  0  0  0  0  0999 V2000
   -2.5854    0.3538    0.1787 N   0  0  0  0  0  0  0  0  0  0  0  0
    1.1919   -0.3313    0.3921 C   0  0  0  0  0  0  0  0  0  0  0  0
   -0.1443    0.3648    0.6039 C   0  0  0  0  0  0  0  0  0  0  0  0
   -1.3300   -0.3601   -0.0542 C   0  0  0  0  0  0  0  0  0  0  0  0
    1.6234   -0.3291   -1.0819 C   0  0  0  0  0  0  0  0  0  0  0  0
    3.1428   -0.1590   -1.0757 C   0  0  0  0  0  0  0  0  0  0  0  0
    2.3345    0.3698    1.0599 C   0  0  0  0  0  0  0  0  0  0  0  0
    3.3994    0.4586    0.2572 C   0  0  0  0  0  0  0  0  0  0  0  0
   -1.4616   -1.7797    0.4957 C   0  0  0  0  0  0  0  0  0  0  0  0
   -3.6917   -0.3256   -0.4943 C   0  0  0  0  0  0  0  0  0  0  0  0
   -2.4792    1.7377   -0.2814 C   0  0  0  0  0  0  0  0  0  0  0  0
  1  4  1  0
  1 10  1  0
  1 11  1  0
  2  3  1  0
  2  5  1  0
  2  7  1  0
  3  4  1  0
  4  9  1  0
  5  6  1  0
  6  8  1  0
  7  8  2  0
M  END
>  <PUBCHEM_COMPOUND_CID>  (1) 
49664

>  <PUBCHEM_CONFORMER_RMSD>  (1) 
0.6

>  <PUBCHEM_CONFORMER_DIVERSEORDER>  (1) 
4
10
14
13
1
8
5
11
17
12
18
16
19
9
15
2
3
6
7

>  <PUBCHEM_MMFF94_PARTIAL_CHARGES>  (1) 
10
1 -0.81
10 0.27
11 0.27
2 0.14
20 0.15
21 0.15
4 0.27
6 0.14
7 -0.29
8 -0.29

>  <PUBCHEM_EFFECTIVE_ROTOR_COUNT>  (1) 
3.6

>  <PUBCHEM_PHARMACOPHORE_FEATURES>  (1) 
2
1 1 cation
5 2 5 6 7 8 rings

>  <PUBCHEM_HEAVY_ATOM_COUNT>  (1) 
11

>  <PUBCHEM_ATOM_DEF_STEREO_COUNT>  (1) 
0

>  <PUBCHEM_ATOM_UDEF_STEREO_COUNT>  (1) 
2

>  <PUBCHEM_BOND_DEF_STEREO_COUNT>  (1) 
0

>  <PUBCHEM_BOND_UDEF_STEREO_COUNT>  (1) 
0

>  <PUBCHEM_ISOTOPIC_ATOM_COUNT>  (1) 
0

>  <PUBCHEM_COMPONENT_COUNT>  (1) 
1

>  <PUBCHEM_CACTVS_TAUTO_COUNT>  (1) 
1

>  <PUBCHEM_CONFORMER_ID>  (1) 
0000C20000000004

>  <PUBCHEM_MMFF94_ENERGY>  (1) 
22.6788

>  <PUBCHEM_FEATURE_SELFOVERLAP>  (1) 
10.148

>  <PUBCHEM_SHAPE_FINGERPRINT>  (1) 
11062470 55 18272368689339202016
124424 183 18272929406421416882
12716758 59 18410860944833313826
12897270 3 17489308568447765744
12932741 1 18059580212806146418
12932764 1 18272369754475377651
14144814 61 17894348865000448121
14325111 11 18337106774446958569
14993402 34 17822008718302368455
15775835 57 16877664582000278366
18186145 218 18130790005969511929
190213 19 17240765081469436416
20201158 50 17846501434790479150
20279233 1 18060422443134746514
20645477 70 16845297094340596486
20711983 171 18187644639908667365
21293036 1 17918272069114986983
23048698 100 16370723729449484300
23402539 116 18338220635681764071
23402655 69 17132114615410125057
305870 269 17896876552233590451
3248919 1 17458065945407341395
77492 1 17240480320890230106
8030462 33 18259701181531765203

>  <PUBCHEM_SHAPE_MULTIPOLES>  (1) 
221.39
6.16
1.28
1.04
0.45
0.01
-0.1
-0.78
-0.97
1.1
0.08
-0.65
0.04
0.36

>  <PUBCHEM_SHAPE_SELFOVERLAP>  (1) 
430.984

>  <PUBCHEM_SHAPE_VOLUME>  (1) 
136.6

>  <PUBCHEM_COORDINATE_TYPE>  (1) 
2
5
10

$$$$
