49666
     RDKit          3D

 30 33  0  0  0  0  0  0  0  0999 V2000
   -1.1379   -0.1320   -0.5385 O   0  0  0  0  0  0  0  0  0  0  0  0
    1.8433   -3.8044   -1.0449 O   0  0  0  0  0  0  0  0  0  0  0  0
   -3.9005   -2.4807    1.3104 O   0  0  0  0  0  0  0  0  0  0  0  0
    2.2248   -0.4355   -0.5224 N   0  0  0  0  0  0  0  0  0  0  0  0
   -0.8856   -1.4620   -0.3362 C   0  0  0  0  0  0  0  0  0  0  0  0
    0.3391   -1.9547   -0.7879 C   0  0  0  0  0  0  0  0  0  0  0  0
   -1.7915   -2.3126    0.2889 C   0  0  0  0  0  0  0  0  0  0  0  0
   -3.3130   -0.3125    0.5224 C   0  0  0  0  0  0  0  0  0  0  0  0
    1.3195   -1.0468   -1.4597 C   0  0  0  0  0  0  0  0  0  0  0  0
   -2.3458    0.3869   -0.1050 C   0  0  0  0  0  0  0  0  0  0  0  0
   -3.0741   -1.7661    0.7570 C   0  0  0  0  0  0  0  0  0  0  0  0
    0.6530   -3.3021   -0.6112 C   0  0  0  0  0  0  0  0  0  0  0  0
   -4.6208    0.2223    1.0305 C   0  0  0  0  0  0  0  0  0  0  0  0
   -1.4812   -3.6635    0.4673 C   0  0  0  0  0  0  0  0  0  0  0  0
   -0.2560   -4.1551    0.0153 C   0  0  0  0  0  0  0  0  0  0  0  0
   -2.4668    1.8211   -0.4030 C   0  0  0  0  0  0  0  0  0  0  0  0
    3.1840    0.4413   -1.1942 C   0  0  0  0  0  0  0  0  0  0  0  0
   -4.5080    0.7067    2.4622 C   0  0  0  0  0  0  0  0  0  0  0  0
    4.1549    1.0565   -0.2282 C   0  0  0  0  0  0  0  0  0  0  0  0
   -2.0229    2.7660    0.5226 C   0  0  0  0  0  0  0  0  0  0  0  0
   -3.0254    2.2383   -1.6114 C   0  0  0  0  0  0  0  0  0  0  0  0
   -2.1379    4.1271    0.2401 C   0  0  0  0  0  0  0  0  0  0  0  0
   -3.1403    3.5994   -1.8938 C   0  0  0  0  0  0  0  0  0  0  0  0
    3.8518    2.2744    0.3693 C   0  0  0  0  0  0  0  0  0  0  0  0
    5.3471    0.4020    0.0593 C   0  0  0  0  0  0  0  0  0  0  0  0
   -2.6965    4.5437   -0.9681 C   0  0  0  0  0  0  0  0  0  0  0  0
    2.9328   -3.7733   -0.1254 C   0  0  0  0  0  0  0  0  0  0  0  0
    4.7536    2.8460    1.2668 C   0  0  0  0  0  0  0  0  0  0  0  0
    6.2487    0.9738    0.9569 C   0  0  0  0  0  0  0  0  0  0  0  0
    5.9519    2.1958    1.5608 C   0  0  0  0  0  0  0  0  0  0  0  0
  1  5  1  0
  1 10  1  0
  2 12  1  0
  2 27  1  0
  3 11  2  0
  4  9  1  0
  4 17  1  0
  5  6  2  0
  5  7  1  0
  6  9  1  0
  6 12  1  0
  7 11  1  0
  7 14  2  0
  8 10  2  0
  8 11  1  0
  8 13  1  0
 10 16  1  0
 12 15  2  0
 13 18  1  0
 14 15  1  0
 16 20  2  0
 16 21  1  0
 17 19  1  0
 19 24  2  0
 19 25  1  0
 20 22  1  0
 21 23  2  0
 22 26  2  0
 23 26  1  0
 24 28  1  0
 25 29  2  0
 28 30  2  0
 29 30  1  0
M  END
>  <PUBCHEM_COMPOUND_CID>  (1) 
49666

>  <PUBCHEM_CONFORMER_RMSD>  (1) 
0.8

>  <PUBCHEM_CONFORMER_DIVERSEORDER>  (1) 
1
29
15
13
10
27
19
8
17
9
5
20
2
14
12
26
11
22
6
25
23
21
30
16
7
4
28
24
18
31
3

>  <PUBCHEM_MMFF94_PARTIAL_CHARGES>  (1) 
42
1 -0.16
10 0.05
11 0.47
12 0.08
13 0.14
14 -0.15
15 -0.15
16 0.03
17 0.41
19 -0.14
2 -0.36
20 -0.15
21 -0.15
22 -0.15
23 -0.15
24 -0.15
25 -0.15
26 -0.15
27 0.28
28 -0.15
29 -0.15
3 -0.57
30 -0.15
35 0.15
36 0.15
37 0.36
4 -0.9
43 0.15
44 0.15
45 0.15
46 0.15
47 0.15
48 0.15
49 0.15
5 0.08
53 0.15
54 0.15
55 0.15
6 -0.14
7 0.09
8 -0.12
9 0.41

>  <PUBCHEM_EFFECTIVE_ROTOR_COUNT>  (1) 
7

>  <PUBCHEM_PHARMACOPHORE_FEATURES>  (1) 
10
1 1 acceptor
1 18 hydrophobe
1 2 acceptor
1 3 acceptor
1 4 cation
1 4 donor
6 1 5 7 8 10 11 rings
6 16 20 21 22 23 26 rings
6 19 24 25 28 29 30 rings
6 5 6 7 12 14 15 rings

>  <PUBCHEM_HEAVY_ATOM_COUNT>  (1) 
30

>  <PUBCHEM_ATOM_DEF_STEREO_COUNT>  (1) 
0

>  <PUBCHEM_ATOM_UDEF_STEREO_COUNT>  (1) 
0

>  <PUBCHEM_BOND_DEF_STEREO_COUNT>  (1) 
0

>  <PUBCHEM_BOND_UDEF_STEREO_COUNT>  (1) 
0

>  <PUBCHEM_ISOTOPIC_ATOM_COUNT>  (1) 
0

>  <PUBCHEM_COMPONENT_COUNT>  (1) 
1

>  <PUBCHEM_CACTVS_TAUTO_COUNT>  (1) 
1

>  <PUBCHEM_CONFORMER_ID>  (1) 
0000C20200000001

>  <PUBCHEM_MMFF94_ENERGY>  (1) 
93.4514

>  <PUBCHEM_FEATURE_SELFOVERLAP>  (1) 
50.774

>  <PUBCHEM_SHAPE_FINGERPRINT>  (1) 
10074138 170 18190463959394890027
10256941 240 18115007615948942949
10290309 65 18413387653388840800
10439779 11 17255111255959868512
10653451 467 18261672671376190689
10930396 42 17977075157933840920
12925494 130 18194402178069830809
13140716 1 18120951747743833327
13402501 40 18201440341109356152
14068700 675 17625819744982034951
14251764 38 18195236715942367156
15326921 28 18195782181891737032
15439362 3 17906442230682153300
15513586 35 17551500472769223856
15950262 2 16055225431080815585
16067690 210 18044926025279596560
19246450 95 18122875726554198594
21049683 118 16737495327279415697
23559900 14 17762613997602224495
24771293 8 18127987488976211283
25019877 29 17129319811598294823
3117164 225 18263627499796796194
3380486 145 18262536861645287043
350125 39 17757297898153486903
4144715 1 18261678056933189466
4371632 12 18194387906357756069
4409770 3 18263346140040462221
469060 322 18264789803318626785
474144 1 17463704438846406684
5171179 24 18195816158607758743
57307002 19 18339635758955870777
6371380 46 18268983204030117222
7399639 24 18337684022747564755
9981440 41 18263073345308642737

>  <PUBCHEM_SHAPE_MULTIPOLES>  (1) 
594.8
11.39
6.63
1.58
16.34
0.94
-0.24
-9.42
-5.45
-2.33
1.13
-0.94
-0.84
3.56

>  <PUBCHEM_SHAPE_SELFOVERLAP>  (1) 
1298.437

>  <PUBCHEM_SHAPE_VOLUME>  (1) 
323

>  <PUBCHEM_COORDINATE_TYPE>  (1) 
2
5
10

$$$$
