49676
     RDKit          3D

 26 28  0  0  0  0  0  0  0  0999 V2000
   -0.2481   -0.1015    0.2072 O   0  0  0  0  0  0  0  0  0  0  0  0
    4.4481    0.6565    0.2814 O   0  0  0  0  0  0  0  0  0  0  0  0
    0.2884   -4.0837   -0.4429 O   0  0  0  0  0  0  0  0  0  0  0  0
    0.7781    2.2366   -0.4024 N   0  0  0  0  0  0  0  0  0  0  0  0
    1.8272    1.7267    0.4807 C   0  0  0  0  0  0  0  0  0  0  0  0
    2.0814    0.2720    0.2433 C   0  0  0  0  0  0  0  0  0  0  0  0
    1.0156   -0.6187    0.1100 C   0  0  0  0  0  0  0  0  0  0  0  0
    1.2599   -1.9702   -0.1110 C   0  0  0  0  0  0  0  0  0  0  0  0
    1.1631    2.0682   -1.8028 C   0  0  0  0  0  0  0  0  0  0  0  0
    0.5060    3.6437   -0.1121 C   0  0  0  0  0  0  0  0  0  0  0  0
    3.3924   -0.1959    0.1544 C   0  0  0  0  0  0  0  0  0  0  0  0
    0.1178   -2.8866   -0.2490 C   0  0  0  0  0  0  0  0  0  0  0  0
   -1.2437   -2.2874   -0.1395 C   0  0  0  0  0  0  0  0  0  0  0  0
   -1.3263   -0.9601    0.0830 C   0  0  0  0  0  0  0  0  0  0  0  0
    2.5719   -2.4432   -0.2001 C   0  0  0  0  0  0  0  0  0  0  0  0
    3.6370   -1.5515   -0.0671 C   0  0  0  0  0  0  0  0  0  0  0  0
    0.0713    2.5988   -2.7121 C   0  0  0  0  0  0  0  0  0  0  0  0
    0.0490    3.8015    1.3254 C   0  0  0  0  0  0  0  0  0  0  0  0
   -2.6090   -0.2561    0.2163 C   0  0  0  0  0  0  0  0  0  0  0  0
   -2.3908   -3.2425   -0.3020 C   0  0  0  0  0  0  0  0  0  0  0  0
   -3.2034   -0.1203    1.4712 C   0  0  0  0  0  0  0  0  0  0  0  0
   -3.2329    0.2776   -0.9115 C   0  0  0  0  0  0  0  0  0  0  0  0
    4.9625    0.8588    1.5960 C   0  0  0  0  0  0  0  0  0  0  0  0
   -4.4209    0.5486    1.5981 C   0  0  0  0  0  0  0  0  0  0  0  0
   -4.4503    0.9466   -0.7847 C   0  0  0  0  0  0  0  0  0  0  0  0
   -5.0442    1.0820    0.4701 C   0  0  0  0  0  0  0  0  0  0  0  0
  1  7  1  0
  1 14  1  0
  2 11  1  0
  2 23  1  0
  3 12  2  0
  4  5  1  0
  4  9  1  0
  4 10  1  0
  5  6  1  0
  6  7  2  0
  6 11  1  0
  7  8  1  0
  8 12  1  0
  8 15  2  0
  9 17  1  0
 10 18  1  0
 11 16  2  0
 12 13  1  0
 13 14  2  0
 13 20  1  0
 14 19  1  0
 15 16  1  0
 19 21  2  0
 19 22  1  0
 21 24  1  0
 22 25  2  0
 24 26  2  0
 25 26  1  0
M  END
>  <PUBCHEM_COMPOUND_CID>  (1) 
49676

>  <PUBCHEM_CONFORMER_RMSD>  (1) 
0.8

>  <PUBCHEM_CONFORMER_DIVERSEORDER>  (1) 
2
8
4
1
5
6
9
3
7

>  <PUBCHEM_MMFF94_PARTIAL_CHARGES>  (1) 
31
1 -0.16
10 0.27
11 0.08
12 0.47
13 -0.12
14 0.05
15 -0.15
16 -0.15
19 0.03
2 -0.36
20 0.14
21 -0.15
22 -0.15
23 0.28
24 -0.15
25 -0.15
26 -0.15
3 -0.57
33 0.15
34 0.15
4 -0.81
44 0.15
45 0.15
49 0.15
5 0.41
50 0.15
51 0.15
6 -0.14
7 0.08
8 0.09
9 0.27

>  <PUBCHEM_EFFECTIVE_ROTOR_COUNT>  (1) 
6

>  <PUBCHEM_PHARMACOPHORE_FEATURES>  (1) 
7
1 1 acceptor
1 2 acceptor
1 3 acceptor
1 4 cation
6 1 7 8 12 13 14 rings
6 19 21 22 24 25 26 rings
6 6 7 8 11 15 16 rings

>  <PUBCHEM_HEAVY_ATOM_COUNT>  (1) 
26

>  <PUBCHEM_ATOM_DEF_STEREO_COUNT>  (1) 
0

>  <PUBCHEM_ATOM_UDEF_STEREO_COUNT>  (1) 
0

>  <PUBCHEM_BOND_DEF_STEREO_COUNT>  (1) 
0

>  <PUBCHEM_BOND_UDEF_STEREO_COUNT>  (1) 
0

>  <PUBCHEM_ISOTOPIC_ATOM_COUNT>  (1) 
0

>  <PUBCHEM_COMPONENT_COUNT>  (1) 
1

>  <PUBCHEM_CACTVS_TAUTO_COUNT>  (1) 
1

>  <PUBCHEM_CONFORMER_ID>  (1) 
0000C20C00000002

>  <PUBCHEM_MMFF94_ENERGY>  (1) 
86.4238

>  <PUBCHEM_FEATURE_SELFOVERLAP>  (1) 
35.55

>  <PUBCHEM_SHAPE_FINGERPRINT>  (1) 
10162869 55 18412545423835830913
10411042 1 17332530073186011151
104564 63 17979364053247763412
10967382 1 18339924814090864258
1100329 8 18340487884498503464
11513181 2 17843687651612450631
12035759 4 18044972080214320596
12156800 1 16903601816766220341
12236239 1 17560517305798054923
12422481 6 17897424289972836832
12633257 1 18339349859972798296
13075007 39 17968965048835422745
13140716 1 18265616669963717912
133893 2 17243852673503172860
13402501 40 17970057860488731965
13965767 371 18338503162952005322
14178342 30 18124303059433532922
14713325 29 16016944018231331204
14790565 3 18338812173054487192
14955137 171 18265356017125660218
15081414 286 18341057332668910576
1601671 61 18335425685930371052
17357779 13 18190454961596263853
17980427 26 16914781848750545122
19591789 44 17980487763164676034
20600515 1 17988374757249313120
20642791 178 18044101378526701516
20739085 24 18192733158009645416
21033648 29 18339631261982752337
22113638 7 18412263960546724561
22182313 1 18118671137795883350
23184049 59 18409170978365890427
23559900 14 18060140951542740682
2748010 2 18119524328189978318
335352 9 18341612582294772030
34934 24 18410285926507152490
350125 39 18194969771299221203
4409770 3 17899382395505762244
474 4 18343021065026420139
5104073 3 18412258454578467754
513532 50 17917161510868321205
59755656 215 18341331081769576166
7832392 63 18341050808597679226
81228 2 17611481734823187273

>  <PUBCHEM_SHAPE_MULTIPOLES>  (1) 
512.48
7.99
4.57
1.5
2.64
0.14
-0.52
-1.1
3.01
-0.88
-0.82
0.25
-1.44
0.11

>  <PUBCHEM_SHAPE_SELFOVERLAP>  (1) 
1102.875

>  <PUBCHEM_SHAPE_VOLUME>  (1) 
283.8

>  <PUBCHEM_COORDINATE_TYPE>  (1) 
2
5
10

$$$$
