49682
     RDKit          3D

 26 28  0  0  0  0  0  0  0  0999 V2000
   -0.7385    0.1039    0.2624 O   0  0  0  0  0  0  0  0  0  0  0  0
    3.9840    0.4443    0.7238 O   0  0  0  0  0  0  0  0  0  0  0  0
   -0.4947   -3.8926   -0.4693 O   0  0  0  0  0  0  0  0  0  0  0  0
    0.5315    2.3760   -0.1761 N   0  0  0  0  0  0  0  0  0  0  0  0
    1.6038    0.2700    0.4913 C   0  0  0  0  0  0  0  0  0  0  0  0
    0.4798   -0.5200    0.2481 C   0  0  0  0  0  0  0  0  0  0  0  0
    1.4572    1.7346    0.7567 C   0  0  0  0  0  0  0  0  0  0  0  0
    0.6244   -1.8816    0.0036 C   0  0  0  0  0  0  0  0  0  0  0  0
    2.8727   -0.3088    0.4888 C   0  0  0  0  0  0  0  0  0  0  0  0
   -1.8876   -1.9781   -0.2212 C   0  0  0  0  0  0  0  0  0  0  0  0
   -0.5776   -2.6910   -0.2479 C   0  0  0  0  0  0  0  0  0  0  0  0
   -1.8730   -0.6517    0.0210 C   0  0  0  0  0  0  0  0  0  0  0  0
    1.8941   -2.4655   -0.0007 C   0  0  0  0  0  0  0  0  0  0  0  0
    3.0175   -1.6744    0.2429 C   0  0  0  0  0  0  0  0  0  0  0  0
    4.9661    0.4895   -0.3092 C   0  0  0  0  0  0  0  0  0  0  0  0
   -3.0955    0.1633    0.0622 C   0  0  0  0  0  0  0  0  0  0  0  0
   -3.0987   -2.8333   -0.4589 C   0  0  0  0  0  0  0  0  0  0  0  0
    1.0038    2.2225   -1.5517 C   0  0  0  0  0  0  0  0  0  0  0  0
    0.3718    3.7917    0.1544 C   0  0  0  0  0  0  0  0  0  0  0  0
    6.2738   -0.0816    0.2177 C   0  0  0  0  0  0  0  0  0  0  0  0
    5.1257    1.9251   -0.7857 C   0  0  0  0  0  0  0  0  0  0  0  0
   -3.7793    0.3351    1.2662 C   0  0  0  0  0  0  0  0  0  0  0  0
   -3.5726    0.7654   -1.1022 C   0  0  0  0  0  0  0  0  0  0  0  0
   -4.9395    1.1083    1.3055 C   0  0  0  0  0  0  0  0  0  0  0  0
   -4.7328    1.5387   -1.0628 C   0  0  0  0  0  0  0  0  0  0  0  0
   -5.4162    1.7100    0.1410 C   0  0  0  0  0  0  0  0  0  0  0  0
  1  6  1  0
  1 12  1  0
  2  9  1  0
  2 15  1  0
  3 11  2  0
  4  7  1  0
  4 18  1  0
  4 19  1  0
  5  6  2  0
  5  7  1  0
  5  9  1  0
  6  8  1  0
  8 11  1  0
  8 13  2  0
  9 14  2  0
 10 11  1  0
 10 12  2  0
 10 17  1  0
 12 16  1  0
 13 14  1  0
 15 20  1  0
 15 21  1  0
 16 22  2  0
 16 23  1  0
 22 24  1  0
 23 25  2  0
 24 26  2  0
 25 26  1  0
M  END
>  <PUBCHEM_COMPOUND_CID>  (1) 
49682

>  <PUBCHEM_CONFORMER_RMSD>  (1) 
0.8

>  <PUBCHEM_CONFORMER_DIVERSEORDER>  (1) 
3
2
5
4
7
6
1

>  <PUBCHEM_MMFF94_PARTIAL_CHARGES>  (1) 
31
1 -0.16
10 -0.12
11 0.47
12 0.05
13 -0.15
14 -0.15
15 0.28
16 0.03
17 0.14
18 0.27
19 0.27
2 -0.36
22 -0.15
23 -0.15
24 -0.15
25 -0.15
26 -0.15
29 0.15
3 -0.57
30 0.15
4 -0.81
47 0.15
48 0.15
49 0.15
5 -0.14
50 0.15
51 0.15
6 0.08
7 0.41
8 0.09
9 0.08

>  <PUBCHEM_EFFECTIVE_ROTOR_COUNT>  (1) 
5

>  <PUBCHEM_PHARMACOPHORE_FEATURES>  (1) 
8
1 1 acceptor
1 2 acceptor
1 3 acceptor
1 4 cation
3 15 20 21 hydrophobe
6 1 6 8 10 11 12 rings
6 16 22 23 24 25 26 rings
6 5 6 8 9 13 14 rings

>  <PUBCHEM_HEAVY_ATOM_COUNT>  (1) 
26

>  <PUBCHEM_ATOM_DEF_STEREO_COUNT>  (1) 
0

>  <PUBCHEM_ATOM_UDEF_STEREO_COUNT>  (1) 
0

>  <PUBCHEM_BOND_DEF_STEREO_COUNT>  (1) 
0

>  <PUBCHEM_BOND_UDEF_STEREO_COUNT>  (1) 
0

>  <PUBCHEM_ISOTOPIC_ATOM_COUNT>  (1) 
0

>  <PUBCHEM_COMPONENT_COUNT>  (1) 
1

>  <PUBCHEM_CACTVS_TAUTO_COUNT>  (1) 
1

>  <PUBCHEM_CONFORMER_ID>  (1) 
0000C21200000003

>  <PUBCHEM_MMFF94_ENERGY>  (1) 
88.6202

>  <PUBCHEM_FEATURE_SELFOVERLAP>  (1) 
40.624

>  <PUBCHEM_SHAPE_FINGERPRINT>  (1) 
10162869 55 18412545406661470369
10493431 412 18412829079447918579
10967382 1 18267861696814619035
1100329 8 18339645645722666240
11513181 2 17771627854235265861
11796584 16 13614234858742795021
12236239 1 17488454192859202241
12390115 104 18270974517375430059
12422481 6 17676203568006980412
12788726 201 17631737041062040873
13140716 1 18338519767121673337
13402501 40 18115862993741862237
14117953 113 18338233757218511620
14713325 29 16160771121381153892
14790565 3 18339932514972897136
14840074 17 18187941572599686068
14955137 171 18263945348049572792
15081414 286 18340212886137341548
15196674 1 18412261735769749338
1601671 61 18409448085661586840
200 152 9367344821364204891
20642791 178 18042979837837467748
20739085 24 18120954818561326793
21033648 29 18272641376966079593
21279426 13 18272377451711296294
21298829 104 18198905817180361513
21421861 104 17970054570665200202
21756936 100 17131567067779094667
23402539 116 18341608244340385942
23558518 356 18046343312394098667
23559900 14 18130510842629653568
293599 30 18411702075797693370
335352 9 18411980248456262998
34934 24 18408317770386004266
350125 39 18339083821393333915
474 4 18270959043093292939
484989 97 18266731575857056679
5104073 3 18336539508479076338
59554788 170 18196379108835064318
59755656 215 18341615846701739782
70251023 43 17762895863558635530
7832392 63 18340199782075674283

>  <PUBCHEM_SHAPE_MULTIPOLES>  (1) 
512.48
11.03
3.86
1.04
3.31
0.94
0.06
-5.27
-0.41
-0.51
0.75
-0.62
-0.44
-0.62

>  <PUBCHEM_SHAPE_SELFOVERLAP>  (1) 
1103.184

>  <PUBCHEM_SHAPE_VOLUME>  (1) 
284.7

>  <PUBCHEM_COORDINATE_TYPE>  (1) 
2
5
10

$$$$
