49680
     RDKit          3D

 22 24  0  0  0  0  0  0  0  0999 V2000
    0.3483    0.0897    0.1819 O   0  0  0  0  0  0  0  0  0  0  0  0
   -4.3795    0.4619    0.5817 O   0  0  0  0  0  0  0  0  0  0  0  0
    0.1115   -3.9219   -0.4894 O   0  0  0  0  0  0  0  0  0  0  0  0
   -2.8060    2.5296   -0.1456 N   0  0  0  0  0  0  0  0  0  0  0  0
   -1.9976    0.2709    0.3797 C   0  0  0  0  0  0  0  0  0  0  0  0
   -0.8759   -0.5291    0.1611 C   0  0  0  0  0  0  0  0  0  0  0  0
   -1.8453    1.7387    0.6225 C   0  0  0  0  0  0  0  0  0  0  0  0
   -1.0287   -1.8962   -0.0644 C   0  0  0  0  0  0  0  0  0  0  0  0
   -3.2699   -0.3012    0.3711 C   0  0  0  0  0  0  0  0  0  0  0  0
   -2.3008   -2.4730   -0.0736 C   0  0  0  0  0  0  0  0  0  0  0  0
    1.4807   -0.6791   -0.0396 C   0  0  0  0  0  0  0  0  0  0  0  0
    0.1712   -2.7165   -0.2901 C   0  0  0  0  0  0  0  0  0  0  0  0
   -3.4209   -1.6702    0.1450 C   0  0  0  0  0  0  0  0  0  0  0  0
    1.4640   -2.0031   -0.2613 C   0  0  0  0  0  0  0  0  0  0  0  0
    2.7435    0.0848    0.0096 C   0  0  0  0  0  0  0  0  0  0  0  0
   -2.6277    2.2991   -1.5788 C   0  0  0  0  0  0  0  0  0  0  0  0
   -2.6625    3.9514    0.1651 C   0  0  0  0  0  0  0  0  0  0  0  0
    3.9197   -0.5304    0.4459 C   0  0  0  0  0  0  0  0  0  0  0  0
    2.7683    1.4261   -0.3803 C   0  0  0  0  0  0  0  0  0  0  0  0
    5.1127    0.1910    0.4920 C   0  0  0  0  0  0  0  0  0  0  0  0
    3.9613    2.1476   -0.3345 C   0  0  0  0  0  0  0  0  0  0  0  0
    5.1335    1.5299    0.1018 C   0  0  0  0  0  0  0  0  0  0  0  0
  1  6  1  0
  1 11  1  0
  2  9  1  0
  3 12  2  0
  4  7  1  0
  4 16  1  0
  4 17  1  0
  5  6  2  0
  5  7  1  0
  5  9  1  0
  6  8  1  0
  8 10  2  0
  8 12  1  0
  9 13  2  0
 10 13  1  0
 11 14  2  0
 11 15  1  0
 12 14  1  0
 15 18  2  0
 15 19  1  0
 18 20  1  0
 19 21  2  0
 20 22  2  0
 21 22  1  0
M  END
>  <PUBCHEM_COMPOUND_CID>  (1) 
49680

>  <PUBCHEM_CONFORMER_RMSD>  (1) 
0.6

>  <PUBCHEM_CONFORMER_DIVERSEORDER>  (1) 
2
6
3
4
1
5

>  <PUBCHEM_MMFF94_PARTIAL_CHARGES>  (1) 
31
1 -0.16
10 -0.15
11 0.05
12 0.47
13 -0.15
14 -0.14
15 0.03
16 0.27
17 0.27
18 -0.15
19 -0.15
2 -0.53
20 -0.15
21 -0.15
22 -0.15
25 0.15
26 0.15
27 0.15
3 -0.57
34 0.15
35 0.15
36 0.45
37 0.15
38 0.15
39 0.15
4 -0.81
5 -0.14
6 0.08
7 0.41
8 0.09
9 0.08

>  <PUBCHEM_EFFECTIVE_ROTOR_COUNT>  (1) 
3

>  <PUBCHEM_PHARMACOPHORE_FEATURES>  (1) 
7
1 1 acceptor
1 2 donor
1 3 acceptor
1 4 cation
6 1 6 8 11 12 14 rings
6 15 18 19 20 21 22 rings
6 5 6 8 9 10 13 rings

>  <PUBCHEM_HEAVY_ATOM_COUNT>  (1) 
22

>  <PUBCHEM_ATOM_DEF_STEREO_COUNT>  (1) 
0

>  <PUBCHEM_ATOM_UDEF_STEREO_COUNT>  (1) 
0

>  <PUBCHEM_BOND_DEF_STEREO_COUNT>  (1) 
0

>  <PUBCHEM_BOND_UDEF_STEREO_COUNT>  (1) 
0

>  <PUBCHEM_ISOTOPIC_ATOM_COUNT>  (1) 
0

>  <PUBCHEM_COMPONENT_COUNT>  (1) 
1

>  <PUBCHEM_CACTVS_TAUTO_COUNT>  (1) 
5

>  <PUBCHEM_CONFORMER_ID>  (1) 
0000C21000000002

>  <PUBCHEM_MMFF94_ENERGY>  (1) 
73.485

>  <PUBCHEM_FEATURE_SELFOVERLAP>  (1) 
35.548

>  <PUBCHEM_SHAPE_FINGERPRINT>  (1) 
10411042 1 17475795832668331486
10498660 4 18410576227235260053
10670039 82 18263378026410483196
1100329 8 17762061343075977147
11045515 52 17902219345763896495
11370993 70 18338793420936537940
11595378 159 17971168530325381576
11725454 13 16663161786820490325
12107183 9 17974277734707903954
12173636 292 18411979187040035332
12390115 104 18200896026908028560
12403259 226 18199746019518344112
12403260 363 18337942411832058166
12403814 3 18335987553478077017
13140716 1 18192721252803432155
13583140 156 17313665936591355105
138480 1 17114383632959601508
13965767 371 17825389570397522916
14251751 93 18408599254026327096
14508225 48 17622992908681007527
14790565 3 18341624732567413465
15042514 8 18193842771475101586
15196674 1 18339927120683338194
15256400 18 18411419501705000198
17492 89 18408603665074616330
17974551 9 14495522896186926129
20510252 161 18271530883032859738
20645477 56 18270685380519480506
20715895 44 18334850568366599725
21033648 29 18200579359544665144
21524375 3 18409732876258137106
22907989 373 18337656624723968117
23227448 37 18411418423177670301
23366157 5 18189341169350479946
23402539 116 18200026403473713023
23419403 2 15824333216033546482
23558518 356 18189061910571015347
23559900 14 18130514067944481494
238 59 17105336937518404173
2748010 2 17977677415839274703
283562 15 18411416241608843779
350125 39 18410579465814674410
4214541 1 18409729577976409264
474 4 17907571424696750921
5104073 3 18337672039815255090
58051976 378 18413388722118169047
7808743 9 18195528314943478368
9709674 26 18271253841022145838
9862522 239 18337377275792842454
9981440 41 18409444756808803483

>  <PUBCHEM_SHAPE_MULTIPOLES>  (1) 
430.16
8.91
4.14
0.82
8.96
0.53
-0.16
4.77
0.98
-3.24
-0.71
-0.29
0.28
0.08

>  <PUBCHEM_SHAPE_SELFOVERLAP>  (1) 
942.933

>  <PUBCHEM_SHAPE_VOLUME>  (1) 
232.9

>  <PUBCHEM_COORDINATE_TYPE>  (1) 
2
5
10

$$$$
