49692
     RDKit          3D

 28 31  0  0  0  0  0  0  0  0999 V2000
    0.2609   -4.1911    1.6802 O   0  0  0  0  0  0  0  0  0  0  0  0
   -0.1194    0.1811   -0.4254 O   0  0  0  0  0  0  0  0  0  0  0  0
    4.6272   -0.1405   -0.4306 O   0  0  0  0  0  0  0  0  0  0  0  0
    0.0310    4.0829    0.7247 O   0  0  0  0  0  0  0  0  0  0  0  0
    1.1057   -2.1133   -0.0722 N   0  0  0  0  0  0  0  0  0  0  0  0
    2.1221   -1.4066   -0.8489 C   0  0  0  0  0  0  0  0  0  0  0  0
    1.4351   -2.0922    1.3598 C   0  0  0  0  0  0  0  0  0  0  0  0
    0.9656   -3.5005   -0.5361 C   0  0  0  0  0  0  0  0  0  0  0  0
    2.2349    0.0239   -0.4269 C   0  0  0  0  0  0  0  0  0  0  0  0
    0.3679   -2.8461    2.1482 C   0  0  0  0  0  0  0  0  0  0  0  0
   -0.0914   -4.2204    0.2966 C   0  0  0  0  0  0  0  0  0  0  0  0
    1.0884    0.7924   -0.2223 C   0  0  0  0  0  0  0  0  0  0  0  0
    1.2014    2.1222    0.1704 C   0  0  0  0  0  0  0  0  0  0  0  0
    3.4946    0.5919   -0.2366 C   0  0  0  0  0  0  0  0  0  0  0  0
   -1.3207    2.2092    0.1516 C   0  0  0  0  0  0  0  0  0  0  0  0
   -0.0235    2.9089    0.3802 C   0  0  0  0  0  0  0  0  0  0  0  0
   -1.2750    0.9181   -0.2341 C   0  0  0  0  0  0  0  0  0  0  0  0
    2.4616    2.6953    0.3616 C   0  0  0  0  0  0  0  0  0  0  0  0
    3.6075    1.9255    0.1571 C   0  0  0  0  0  0  0  0  0  0  0  0
   -2.5548    3.0306    0.3903 C   0  0  0  0  0  0  0  0  0  0  0  0
   -2.4836    0.1249   -0.4964 C   0  0  0  0  0  0  0  0  0  0  0  0
   -3.0216    2.9329    1.8290 C   0  0  0  0  0  0  0  0  0  0  0  0
   -3.0339    0.0945   -1.7780 C   0  0  0  0  0  0  0  0  0  0  0  0
   -3.0812   -0.5989    0.5357 C   0  0  0  0  0  0  0  0  0  0  0  0
    5.1883   -0.1306   -1.7416 C   0  0  0  0  0  0  0  0  0  0  0  0
   -4.1810   -0.6591   -2.0274 C   0  0  0  0  0  0  0  0  0  0  0  0
   -4.2282   -1.3525    0.2864 C   0  0  0  0  0  0  0  0  0  0  0  0
   -4.7781   -1.3825   -0.9951 C   0  0  0  0  0  0  0  0  0  0  0  0
  1 10  1  0
  1 11  1  0
  2 12  1  0
  2 17  1  0
  3 14  1  0
  3 25  1  0
  4 16  2  0
  5  6  1  0
  5  7  1  0
  5  8  1  0
  6  9  1  0
  7 10  1  0
  8 11  1  0
  9 12  2  0
  9 14  1  0
 12 13  1  0
 13 16  1  0
 13 18  2  0
 14 19  2  0
 15 16  1  0
 15 17  2  0
 15 20  1  0
 17 21  1  0
 18 19  1  0
 20 22  1  0
 21 23  2  0
 21 24  1  0
 23 26  1  0
 24 27  2  0
 26 28  2  0
 27 28  1  0
M  END
>  <PUBCHEM_COMPOUND_CID>  (1) 
49692

>  <PUBCHEM_CONFORMER_RMSD>  (1) 
0.8

>  <PUBCHEM_CONFORMER_DIVERSEORDER>  (1) 
1
2
4
3
9
7
8
6
5

>  <PUBCHEM_MMFF94_PARTIAL_CHARGES>  (1) 
34
1 -0.56
10 0.28
11 0.28
12 0.08
13 0.09
14 0.08
15 -0.12
16 0.47
17 0.05
18 -0.15
19 -0.15
2 -0.16
20 0.14
21 0.03
23 -0.15
24 -0.15
25 0.28
26 -0.15
27 -0.15
28 -0.15
3 -0.36
39 0.15
4 -0.57
40 0.15
46 0.15
47 0.15
5 -0.81
51 0.15
52 0.15
53 0.15
6 0.41
7 0.27
8 0.27
9 -0.14

>  <PUBCHEM_EFFECTIVE_ROTOR_COUNT>  (1) 
6.2

>  <PUBCHEM_PHARMACOPHORE_FEATURES>  (1) 
10
1 1 acceptor
1 2 acceptor
1 22 hydrophobe
1 3 acceptor
1 4 acceptor
1 5 cation
6 1 5 7 8 10 11 rings
6 2 12 13 15 16 17 rings
6 21 23 24 26 27 28 rings
6 9 12 13 14 18 19 rings

>  <PUBCHEM_HEAVY_ATOM_COUNT>  (1) 
28

>  <PUBCHEM_ATOM_DEF_STEREO_COUNT>  (1) 
0

>  <PUBCHEM_ATOM_UDEF_STEREO_COUNT>  (1) 
0

>  <PUBCHEM_BOND_DEF_STEREO_COUNT>  (1) 
0

>  <PUBCHEM_BOND_UDEF_STEREO_COUNT>  (1) 
0

>  <PUBCHEM_ISOTOPIC_ATOM_COUNT>  (1) 
0

>  <PUBCHEM_COMPONENT_COUNT>  (1) 
1

>  <PUBCHEM_CACTVS_TAUTO_COUNT>  (1) 
1

>  <PUBCHEM_CONFORMER_ID>  (1) 
0000C21C00000001

>  <PUBCHEM_MMFF94_ENERGY>  (1) 
88.8103

>  <PUBCHEM_FEATURE_SELFOVERLAP>  (1) 
50.775

>  <PUBCHEM_SHAPE_FINGERPRINT>  (1) 
108634 29 18049158071057179414
1100329 8 18121769788811152688
11578080 2 17316201315810238085
12156800 1 16973037530949491387
12553582 1 18341886394790837447
13140716 1 17477476981641476624
13149001 5 18121505914531286934
133893 2 17460589225751012226
13402501 40 18117281578289643307
13583140 156 18191322476729813753
13911987 19 18261959672830560645
140371 6 18052259784569325288
14178342 30 18197765627304830328
14787075 74 18265893751188696503
15209289 33 18411991264488207860
15324884 4 17608635443581241349
19319366 153 17324118864708870711
19591789 44 18412830187702422692
20028762 73 18130783524954222358
21197605 99 17402057090031688227
21421861 104 18119814599275542129
22393880 68 18338222808708577293
2748010 2 17117194543322143596
283562 15 18411980264824242440
2871803 45 18411975888363065029
3298306 158 18188472671080700615
3380486 145 17687766238057805778
3383291 50 18409444774907219826
34934 24 18197223537812568301
352729 6 18051133889167751444
4409770 3 18118150132578074750
463206 1 18125430054820936215
5104073 3 18131067100644388976
563151 40 17765756492508723996
57527295 17 18194369296722645469
70251023 43 18060128882235889061
7097593 13 17833550093968851449
81228 2 16530582034692606883

>  <PUBCHEM_SHAPE_MULTIPOLES>  (1) 
547.77
7.8
5.31
1.59
0.07
1.8
0.11
-0.24
-3.82
0.06
2.9
0.67
0.79
-0.9

>  <PUBCHEM_SHAPE_SELFOVERLAP>  (1) 
1191.161

>  <PUBCHEM_SHAPE_VOLUME>  (1) 
298

>  <PUBCHEM_COORDINATE_TYPE>  (1) 
2
5
10

$$$$
