49700
     RDKit          3D

 27 30  0  0  0  0  0  0  0  0999 V2000
   -0.3566   -4.1946   -1.4922 O   0  0  0  0  0  0  0  0  0  0  0  0
   -0.2010    0.3462    0.3267 O   0  0  0  0  0  0  0  0  0  0  0  0
    4.4517   -0.6240    0.5304 O   0  0  0  0  0  0  0  0  0  0  0  0
    0.5265    4.1160   -1.0246 O   0  0  0  0  0  0  0  0  0  0  0  0
    0.7045   -2.1291    0.1538 N   0  0  0  0  0  0  0  0  0  0  0  0
    1.7835   -1.5074    0.9187 C   0  0  0  0  0  0  0  0  0  0  0  0
    1.0709   -2.2464   -1.2645 C   0  0  0  0  0  0  0  0  0  0  0  0
    0.3737   -3.4529    0.6994 C   0  0  0  0  0  0  0  0  0  0  0  0
    2.1070   -0.1326    0.4263 C   0  0  0  0  0  0  0  0  0  0  0  0
   -0.0649   -2.9082   -2.0394 C   0  0  0  0  0  0  0  0  0  0  0  0
   -0.7450   -4.0872   -0.1221 C   0  0  0  0  0  0  0  0  0  0  0  0
    1.0856    0.7729    0.1373 C   0  0  0  0  0  0  0  0  0  0  0  0
    1.3947    2.0490   -0.3217 C   0  0  0  0  0  0  0  0  0  0  0  0
    3.4387    0.2447    0.2539 C   0  0  0  0  0  0  0  0  0  0  0  0
    2.7276    2.4315   -0.4950 C   0  0  0  0  0  0  0  0  0  0  0  0
    3.7482    1.5248   -0.2057 C   0  0  0  0  0  0  0  0  0  0  0  0
    0.2983    2.9828   -0.6204 C   0  0  0  0  0  0  0  0  0  0  0  0
   -1.2370    1.2224    0.0523 C   0  0  0  0  0  0  0  0  0  0  0  0
   -1.0902    2.4821   -0.4054 C   0  0  0  0  0  0  0  0  0  0  0  0
   -2.5515    0.6188    0.3140 C   0  0  0  0  0  0  0  0  0  0  0  0
   -2.1894    3.4489   -0.7398 C   0  0  0  0  0  0  0  0  0  0  0  0
   -3.2142   -0.0761   -0.6981 C   0  0  0  0  0  0  0  0  0  0  0  0
   -3.1369    0.7405    1.5744 C   0  0  0  0  0  0  0  0  0  0  0  0
    4.9685   -0.6144    1.8594 C   0  0  0  0  0  0  0  0  0  0  0  0
   -4.4616   -0.6486   -0.4500 C   0  0  0  0  0  0  0  0  0  0  0  0
   -4.3844    0.1677    1.8224 C   0  0  0  0  0  0  0  0  0  0  0  0
   -5.0467   -0.5269    0.8101 C   0  0  0  0  0  0  0  0  0  0  0  0
  1 10  1  0
  1 11  1  0
  2 12  1  0
  2 18  1  0
  3 14  1  0
  3 24  1  0
  4 17  2  0
  5  6  1  0
  5  7  1  0
  5  8  1  0
  6  9  1  0
  7 10  1  0
  8 11  1  0
  9 12  2  0
  9 14  1  0
 12 13  1  0
 13 15  2  0
 13 17  1  0
 14 16  2  0
 15 16  1  0
 17 19  1  0
 18 19  2  0
 18 20  1  0
 19 21  1  0
 20 22  2  0
 20 23  1  0
 22 25  1  0
 23 26  2  0
 25 27  2  0
 26 27  1  0
M  END
>  <PUBCHEM_COMPOUND_CID>  (1) 
49700

>  <PUBCHEM_CONFORMER_RMSD>  (1) 
0.8

>  <PUBCHEM_CONFORMER_DIVERSEORDER>  (1) 
2
8
4
3
7
1
6
5

>  <PUBCHEM_MMFF94_PARTIAL_CHARGES>  (1) 
34
1 -0.56
10 0.28
11 0.28
12 0.08
13 0.09
14 0.08
15 -0.15
16 -0.15
17 0.47
18 0.05
19 -0.12
2 -0.16
20 0.03
21 0.14
22 -0.15
23 -0.15
24 0.28
25 -0.15
26 -0.15
27 -0.15
3 -0.36
38 0.15
39 0.15
4 -0.57
43 0.15
44 0.15
48 0.15
49 0.15
5 -0.81
50 0.15
6 0.41
7 0.27
8 0.27
9 -0.14

>  <PUBCHEM_EFFECTIVE_ROTOR_COUNT>  (1) 
5.2

>  <PUBCHEM_PHARMACOPHORE_FEATURES>  (1) 
9
1 1 acceptor
1 2 acceptor
1 3 acceptor
1 4 acceptor
1 5 cation
6 1 5 7 8 10 11 rings
6 2 12 13 17 18 19 rings
6 20 22 23 25 26 27 rings
6 9 12 13 14 15 16 rings

>  <PUBCHEM_HEAVY_ATOM_COUNT>  (1) 
27

>  <PUBCHEM_ATOM_DEF_STEREO_COUNT>  (1) 
0

>  <PUBCHEM_ATOM_UDEF_STEREO_COUNT>  (1) 
0

>  <PUBCHEM_BOND_DEF_STEREO_COUNT>  (1) 
0

>  <PUBCHEM_BOND_UDEF_STEREO_COUNT>  (1) 
0

>  <PUBCHEM_ISOTOPIC_ATOM_COUNT>  (1) 
0

>  <PUBCHEM_COMPONENT_COUNT>  (1) 
1

>  <PUBCHEM_CACTVS_TAUTO_COUNT>  (1) 
1

>  <PUBCHEM_CONFORMER_ID>  (1) 
0000C22400000002

>  <PUBCHEM_MMFF94_ENERGY>  (1) 
89.5089

>  <PUBCHEM_FEATURE_SELFOVERLAP>  (1) 
45.701

>  <PUBCHEM_SHAPE_FINGERPRINT>  (1) 
10616163 171 18264483979740220085
10675989 125 16537634323869220799
10906281 52 18188790352716255409
1100329 8 18193552496040972034
11488393 25 17769945567244090814
11578080 2 15435942884305934030
12156800 1 17399278555090504167
12422481 6 18197497329124032778
12553582 1 18263660497539758089
12788726 201 16249981212323031509
12839892 36 18265880372740226290
13140716 1 18193830664362441530
14117953 113 18411412878728306311
14178342 30 18126007061743433184
14223421 5 18050568434878819489
14790565 3 18337126642819016261
16728300 4 17534316991158603618
17138139 8 17484498381877281287
19591789 44 18409729526283587004
1979834 28 18269855171851990457
20028762 73 18272086132073691199
20691752 17 18341347616570564599
20739085 24 18263383454595471689
20905425 154 18048032978577496122
21197605 99 17760107485507879451
21796203 349 18117870826095703576
22113638 7 18337386166211549789
23559900 14 17832416502229320744
25147074 1 18118675763707996840
5104073 3 18261948549478116360
6287921 2 17987532420021231815
6438718 38 17914616304827951966
7064713 232 18131070441537594643
7226269 152 15600883466245655152
81228 2 17981015807897803506
9709674 26 17832981650931859949
9925002 15 18196074771842226724

>  <PUBCHEM_SHAPE_MULTIPOLES>  (1) 
527.19
7.79
5.15
1.47
1.88
2.12
0.09
-0.66
3.99
-0.32
-2.62
0.22
0.76
-0.6

>  <PUBCHEM_SHAPE_SELFOVERLAP>  (1) 
1151.453

>  <PUBCHEM_SHAPE_VOLUME>  (1) 
285.7

>  <PUBCHEM_COORDINATE_TYPE>  (1) 
2
5
10

$$$$
