49710
     RDKit          3D

 22 24  0  0  0  0  0  0  0  0999 V2000
    1.0508   -0.7789    0.1954 O   0  0  0  0  0  0  0  0  0  0  0  0
    1.9933   -1.4790   -1.7971 O   0  0  0  0  0  0  0  0  0  0  0  0
   -2.5925   -0.2289    0.0346 N   0  0  0  0  0  0  0  0  0  0  0  0
    3.3640   -1.1702    0.1008 C   0  0  0  0  0  0  0  0  0  0  0  0
    3.4509   -1.9950    1.3497 C   0  0  0  0  0  0  0  0  0  0  0  0
    4.1448   -2.4501    0.0995 C   0  0  0  0  0  0  0  0  0  0  0  0
    4.1212    0.1123    0.0540 C   0  0  0  0  0  0  0  0  0  0  0  0
    2.0715   -1.1652   -0.6179 C   0  0  0  0  0  0  0  0  0  0  0  0
    5.0323    0.3471   -0.9758 C   0  0  0  0  0  0  0  0  0  0  0  0
    3.9172    1.0792    1.0385 C   0  0  0  0  0  0  0  0  0  0  0  0
    5.7393    1.5487   -1.0210 C   0  0  0  0  0  0  0  0  0  0  0  0
    4.6242    2.2808    0.9933 C   0  0  0  0  0  0  0  0  0  0  0  0
   -0.2423   -0.7437   -0.4169 C   0  0  0  0  0  0  0  0  0  0  0  0
    5.5351    2.5155   -0.0364 C   0  0  0  0  0  0  0  0  0  0  0  0
   -1.2614   -0.2961    0.6189 C   0  0  0  0  0  0  0  0  0  0  0  0
   -3.5681    0.2395    1.0101 C   0  0  0  0  0  0  0  0  0  0  0  0
   -4.9556    0.3044    0.4292 C   0  0  0  0  0  0  0  0  0  0  0  0
   -5.3860    1.4733   -0.1830 C   0  0  0  0  0  0  0  0  0  0  0  0
   -5.7845   -0.8057    0.5135 C   0  0  0  0  0  0  0  0  0  0  0  0
   -6.6714    1.5335   -0.7215 C   0  0  0  0  0  0  0  0  0  0  0  0
   -7.0697   -0.7454   -0.0252 C   0  0  0  0  0  0  0  0  0  0  0  0
   -7.5131    0.4242   -0.6427 C   0  0  0  0  0  0  0  0  0  0  0  0
  1  8  1  0
  1 13  1  0
  2  8  2  0
  3 15  1  0
  3 16  1  0
  4  5  1  0
  4  6  1  0
  4  7  1  0
  4  8  1  0
  5  6  1  0
  7  9  2  0
  7 10  1  0
  9 11  1  0
 10 12  2  0
 11 14  2  0
 12 14  1  0
 13 15  1  0
 16 17  1  0
 17 18  2  0
 17 19  1  0
 18 20  1  0
 19 21  2  0
 20 22  2  0
 21 22  1  0
M  END
>  <PUBCHEM_COMPOUND_CID>  (1) 
49710

>  <PUBCHEM_CONFORMER_RMSD>  (1) 
1

>  <PUBCHEM_CONFORMER_DIVERSEORDER>  (1) 
1
10
64
546
227
424
54
154
258
249
223
36
108
183
22
525
92
97
58
123
233
415
224
181
85
110
473
12
158
353
136
567
17
132
220
340
475
179
5
411
302
9
260
341
315
522
155
11
4
542
91
318
192
299
212
310
145
247
43
280
75
367
18
458
225
2
439
208
300
509
73
71
370
521
532
219
161
42
292
361
305
159
313
309
86
67
34
53
184
397
3
366
107
232
518
60
29
13
404
436
487
314
295
201
437
289
268
33
534
61
144
38
456
89
27
8

>  <PUBCHEM_MMFF94_PARTIAL_CHARGES>  (1) 
37
1 -0.43
10 -0.15
11 -0.15
12 -0.15
13 0.28
14 -0.15
15 0.27
16 0.41
17 -0.14
18 -0.15
19 -0.15
2 -0.57
20 -0.15
21 -0.15
22 -0.15
23 0.1
24 0.1
25 0.1
26 0.1
27 0.15
28 0.15
29 0.15
3 -0.9
30 0.15
33 0.15
36 0.36
39 0.15
4 0.03
40 0.15
41 0.15
42 0.15
43 0.15
5 -0.2
6 -0.2
7 -0.03
8 0.72
9 -0.15

>  <PUBCHEM_EFFECTIVE_ROTOR_COUNT>  (1) 
8.6

>  <PUBCHEM_PHARMACOPHORE_FEATURES>  (1) 
5
1 2 acceptor
1 3 cation
1 3 donor
6 17 18 19 20 21 22 rings
6 7 9 10 11 12 14 rings

>  <PUBCHEM_HEAVY_ATOM_COUNT>  (1) 
22

>  <PUBCHEM_ATOM_DEF_STEREO_COUNT>  (1) 
0

>  <PUBCHEM_ATOM_UDEF_STEREO_COUNT>  (1) 
0

>  <PUBCHEM_BOND_DEF_STEREO_COUNT>  (1) 
0

>  <PUBCHEM_BOND_UDEF_STEREO_COUNT>  (1) 
0

>  <PUBCHEM_ISOTOPIC_ATOM_COUNT>  (1) 
0

>  <PUBCHEM_COMPONENT_COUNT>  (1) 
1

>  <PUBCHEM_CACTVS_TAUTO_COUNT>  (1) 
1

>  <PUBCHEM_CONFORMER_ID>  (1) 
0000C22E00000001

>  <PUBCHEM_MMFF94_ENERGY>  (1) 
47.4195

>  <PUBCHEM_FEATURE_SELFOVERLAP>  (1) 
25.371

>  <PUBCHEM_SHAPE_FINGERPRINT>  (1) 
10165383 225 18041003973420609126
10638233 991 17489591177649569985
10670039 82 16773529788779403232
10835480 77 18407757028531030561
11991303 11 17203320152788175343
125118 31 18335700495324014781
12596602 18 18334575733493503843
13533116 47 17895472510123716730
13878862 14 18264469755140624780
14251732 16 18410012169755315123
14461889 52 18041001799043986267
14528608 73 18060420235178606560
14565420 104 18187640371370603824
14840074 17 17847061099474195293
14933364 13 18409450280579623193
15142383 8 11314300672287886607
15183329 4 18131352990842120577
15799311 1 13398637156145011677
15961568 22 18408326587706540909
16079462 125 18040710364470372325
17844677 252 18340492153901451105
18335252 114 18202567285447580116
20157964 124 18409167696915950314
20511986 3 17749098986048272747
21049683 118 18265032799852735818
21150785 3 18131349731024797853
21344244 78 18198327474158558362
21641784 216 16917077628918695721
220451 1 16056882412690073583
23035841 295 12391515283016965293
23081809 10 17275107181092755611
23424782 7 18340208604814524907
23845131 108 18263081166771701938
255183 451 17700144201489826974
328310 630 18201446853039575233
34797466 226 17917720097535772501
4073 2 17968100862697919539
44555599 121 18200037214471023289

>  <PUBCHEM_SHAPE_MULTIPOLES>  (1) 
436.03
21.77
2.33
1.15
33.5
0.28
0.08
8.67
2.15
-4.21
-0.17
-0.89
-0.06
0.55

>  <PUBCHEM_SHAPE_SELFOVERLAP>  (1) 
923.24

>  <PUBCHEM_SHAPE_VOLUME>  (1) 
244.4

>  <PUBCHEM_COORDINATE_TYPE>  (1) 
2
5
10

$$$$
