49717
     RDKit          3D

 21 24  0  0  1  0  0  0  0  0999 V2000
   -2.5647   -2.8241    0.9627 O   0  0  0  0  0  0  0  0  0  0  0  0
    0.0434   -1.6527   -0.5609 N   0  0  0  0  0  0  0  0  0  0  0  0
   -2.6678   -0.5111    0.6616 N   0  0  0  0  0  0  0  0  0  0  0  0
    0.2266   -0.4249    0.2476 C   0  0  0  0  0  0  0  0  0  0  0  0
    0.8495   -1.6136   -1.7883 C   0  0  0  0  0  0  0  0  0  0  0  0
    1.6967   -0.0599    0.4481 C   0  0  0  0  0  0  0  0  0  0  0  0
    2.3392   -1.6019   -1.4478 C   0  0  0  0  0  0  0  0  0  0  0  0
   -0.6865    0.7287   -0.1890 C   0  0  0  0  0  0  0  0  0  0  0  0
    2.6919   -0.5937   -0.3886 C   0  0  0  0  0  0  0  0  0  0  0  0
   -1.3555   -1.9341   -0.8892 C   0  0  0  0  0  0  0  0  0  0  0  0
   -2.0731    0.6759    0.1088 C   0  0  0  0  0  0  0  0  0  0  0  0
   -2.2287   -1.8091    0.3479 C   0  0  0  0  0  0  0  0  0  0  0  0
    2.0681    0.8232    1.4770 C   0  0  0  0  0  0  0  0  0  0  0  0
    4.0330   -0.2390   -0.1874 C   0  0  0  0  0  0  0  0  0  0  0  0
   -0.1751    1.8647   -0.8429 C   0  0  0  0  0  0  0  0  0  0  0  0
   -2.8702    1.8054   -0.1464 C   0  0  0  0  0  0  0  0  0  0  0  0
    3.4041    1.1767    1.6624 C   0  0  0  0  0  0  0  0  0  0  0  0
    4.3857    0.6473    0.8295 C   0  0  0  0  0  0  0  0  0  0  0  0
   -3.7921   -0.3521    1.5805 C   0  0  0  0  0  0  0  0  0  0  0  0
   -0.9921    2.9584   -1.1250 C   0  0  0  0  0  0  0  0  0  0  0  0
   -2.3324    2.9360   -0.7606 C   0  0  0  0  0  0  0  0  0  0  0  0
  1 12  2  0
  2  4  1  0
  2  5  1  0
  2 10  1  0
  3 11  1  0
  3 12  1  0
  3 19  1  0
  4  6  1  0
  4  8  1  0
  5  7  1  0
  6  9  2  0
  6 13  1  0
  7  9  1  0
  8 11  2  0
  8 15  1  0
  9 14  1  0
 10 12  1  0
 11 16  1  0
 13 17  2  0
 14 18  2  0
 15 20  2  0
 16 21  2  0
 17 18  1  0
 20 21  1  0
M  END
>  <PUBCHEM_COMPOUND_CID>  (1) 
49717

>  <PUBCHEM_CONFORMER_RMSD>  (1) 
0.6

>  <PUBCHEM_CONFORMER_DIVERSEORDER>  (1) 
1
2
4
3

>  <PUBCHEM_MMFF94_PARTIAL_CHARGES>  (1) 
29
1 -0.57
10 0.33
11 0.12
12 0.57
13 -0.15
14 -0.15
15 -0.15
16 -0.15
17 -0.15
18 -0.15
19 0.3
2 -0.81
20 -0.15
21 -0.15
29 0.15
3 -0.48
30 0.15
31 0.15
32 0.15
33 0.15
34 0.15
38 0.15
39 0.15
4 0.56
5 0.27
6 -0.14
7 0.14
8 -0.14
9 -0.14

>  <PUBCHEM_EFFECTIVE_ROTOR_COUNT>  (1) 
0.8

>  <PUBCHEM_PHARMACOPHORE_FEATURES>  (1) 
6
1 1 acceptor
1 2 cation
6 2 4 5 6 7 9 rings
6 6 9 13 14 17 18 rings
6 8 11 15 16 20 21 rings
7 2 3 4 8 10 11 12 rings

>  <PUBCHEM_HEAVY_ATOM_COUNT>  (1) 
21

>  <PUBCHEM_ATOM_DEF_STEREO_COUNT>  (1) 
0

>  <PUBCHEM_ATOM_UDEF_STEREO_COUNT>  (1) 
1

>  <PUBCHEM_BOND_DEF_STEREO_COUNT>  (1) 
0

>  <PUBCHEM_BOND_UDEF_STEREO_COUNT>  (1) 
0

>  <PUBCHEM_ISOTOPIC_ATOM_COUNT>  (1) 
0

>  <PUBCHEM_COMPONENT_COUNT>  (1) 
1

>  <PUBCHEM_CACTVS_TAUTO_COUNT>  (1) 
1

>  <PUBCHEM_CONFORMER_ID>  (1) 
0000C23500000001

>  <PUBCHEM_MMFF94_ENERGY>  (1) 
80.9491

>  <PUBCHEM_FEATURE_SELFOVERLAP>  (1) 
30.491

>  <PUBCHEM_SHAPE_FINGERPRINT>  (1) 
10165383 225 17327206263363349917
10369192 42 16840506767968400360
10906281 52 18408329895537785781
11132069 177 18341611550763564408
12077114 3 18339630158154486034
12403814 3 18269264819780379810
12553582 1 18117012154816727923
12633257 1 18202567245980478602
12716301 132 18190741933956682601
12730499 353 17761209921887018621
13140716 1 18193001636932224681
133893 2 12748750931370626141
13583140 156 18119776245856016152
13878862 14 16317233249253763557
14223421 5 18413107251716188666
14289901 80 18113620097194349802
14955137 171 17112698644612832896
15099037 37 18408318916873006496
15219456 202 18272653398616229622
16945 1 18334572451520999053
17357779 13 18127668621491839599
18186145 218 17489867129319176448
18219364 16 17917423224974828504
18981168 100 17130399450427468954
19049666 15 18127134065414146262
200 152 14418130738049961298
21421861 104 17398419879796831787
21486144 27 17846502504100062426
21524375 3 17978775827554301637
22112679 90 18120380005897508997
22182313 1 18338244743665616261
23402539 116 18337379509677080863
23419403 2 17486803837804375919
23493267 7 18336259029739306648
23526113 38 17552080593331150039
23557571 272 18337402568966057516
23559900 14 18118410540238688118
238 59 17698975441339030444
25 1 17844236329447854652
2748010 2 18266187123678510509
3187 122 18263638627312955835
3524813 1 18272655610345006578
6049 1 18270692947856392524
6287921 2 17840025474886578600
633830 44 16486981712921252544
6442390 28 18049451348841448121
7097593 13 17751898256547036026
81228 2 18407764733401393435
84936 182 17112685995776286837
90316 7 18261670462760284585
9862522 239 18057297609798127296
9925002 15 17049913210630515670

>  <PUBCHEM_SHAPE_MULTIPOLES>  (1) 
416.34
6.46
2.99
1.52
3.6
0.5
0.08
0.79
2.49
-2.53
-0.93
0.27
-0.09
1.98

>  <PUBCHEM_SHAPE_SELFOVERLAP>  (1) 
917.977

>  <PUBCHEM_SHAPE_VOLUME>  (1) 
222.1

>  <PUBCHEM_COORDINATE_TYPE>  (1) 
2
5
10

$$$$
