49727
     RDKit          3D

 19 19  0  0  1  0  0  0  0  0999 V2000
   -6.3063    0.8563   -0.7263 O   0  0  0  0  0  0  0  0  0  0  0  0
    0.8668   -2.5011    0.2075 O   0  0  0  0  0  0  0  0  0  0  0  0
   -3.1272   -0.3893    0.6410 N   0  0  0  0  0  0  0  0  0  0  0  0
    1.3315   -0.2294    0.5921 N   0  0  0  0  0  0  0  0  0  0  0  0
   -1.8202   -0.6469    0.0339 C   0  0  0  0  0  0  0  0  0  0  0  0
   -0.8483   -1.1132    1.1250 C   0  0  0  0  0  0  0  0  0  0  0  0
   -1.9881   -1.6921   -1.0682 C   0  0  0  0  0  0  0  0  0  0  0  0
   -4.0683    0.0985   -0.3543 C   0  0  0  0  0  0  0  0  0  0  0  0
    0.5484   -1.3767    0.5839 C   0  0  0  0  0  0  0  0  0  0  0  0
    2.6739   -0.0990    0.1644 C   0  0  0  0  0  0  0  0  0  0  0  0
    3.3144    1.1278    0.2404 C   0  0  0  0  0  0  0  0  0  0  0  0
   -5.4256    0.3665    0.2763 C   0  0  0  0  0  0  0  0  0  0  0  0
    2.6257    2.3442    0.7687 C   0  0  0  0  0  0  0  0  0  0  0  0
    3.3234   -1.2205   -0.3276 C   0  0  0  0  0  0  0  0  0  0  0  0
    4.6380    1.2359   -0.1863 C   0  0  0  0  0  0  0  0  0  0  0  0
    1.9139    3.1278   -0.3295 C   0  0  0  0  0  0  0  0  0  0  0  0
    4.6471   -1.1123   -0.7542 C   0  0  0  0  0  0  0  0  0  0  0  0
    5.3044    0.1158   -0.6836 C   0  0  0  0  0  0  0  0  0  0  0  0
   -7.6035    1.1076   -0.2032 C   0  0  0  0  0  0  0  0  0  0  0  0
  1 12  1  0
  1 19  1  0
  2  9  2  0
  3  5  1  0
  3  8  1  0
  4  9  1  0
  4 10  1  0
  5  6  1  0
  5  7  1  0
  6  9  1  0
  8 12  1  0
 10 11  2  0
 10 14  1  0
 11 13  1  0
 11 15  1  0
 13 16  1  0
 14 17  2  0
 15 18  2  0
 17 18  1  0
M  END
>  <PUBCHEM_COMPOUND_CID>  (1) 
49727

>  <PUBCHEM_CONFORMER_RMSD>  (1) 
0.8

>  <PUBCHEM_CONFORMER_DIVERSEORDER>  (1) 
1
196
212
240
123
180
125
200
335
319
301
144
35
339
147
318
305
260
271
194
77
190
50
118
290
265
340
334
3
241
210
117
158
217
262
302
330
293
187
289
96
321
345
224
283
328
120
141
203
338
216
247
274
220
19
162
183
214
167
165
116
236
63
231
15
263
292
131
193
312
174
28
66
104
331
202
256
161
245
55
284
226
254
92
42
250
151
295
67
74
4
248
277
275
238
268
169
29
324
61
126
32
204
86
146
218
269
138
160
230
232
84
332
176
213
49
242
310
307
150
94
136
264
259
192
26
8
133
122
179
197
75
297
300
261
34
270
112
311
326
276
27
185
128
110
308
336
115
171
143
249
129
153
313
267
52
291
320
322
13
206
279
215
281
157
79
243
68
25
40
100
156
288
211
294
228
44
208
181
88
282
48
119
304
286
244
154
201
299
155
139
22
342
124
140
102
186
137
37
5
41
159
221
2
6
209
54
298
317
347
30
348
10
148
316
257
142
76
237
296
246
99
78
225
239
106
45
178
111
198
233
97
199
168
333
344
172
184
327
81
207
253
60
103
9
235
325
85
163
182
234
107
229
58
130
272
145
108
278
191
38
222
346
87
121
127
21
113
219
149
166
329
266
132
164
33
252
273
17
309
177
227
95
189
173
83
89
152
285
24
80
46
39
323
98
91
303
114
255
70
170
135
36
65
315
23
314
251
47
7
109
195
71
280
11
82
18
306
72
287
341
175
101
64
134
56
205
337
62
51
43
258
188
31
343
69
59
14
12
90
53
16
223
73
93
20
57
105

>  <PUBCHEM_MMFF94_PARTIAL_CHARGES>  (1) 
23
1 -0.56
10 0.12
11 -0.14
12 0.28
13 0.14
14 -0.15
15 -0.15
17 -0.15
18 -0.15
19 0.28
2 -0.57
23 0.36
29 0.37
3 -0.9
34 0.15
35 0.15
39 0.15
4 -0.55
40 0.15
5 0.27
6 0.06
8 0.27
9 0.57

>  <PUBCHEM_EFFECTIVE_ROTOR_COUNT>  (1) 
9

>  <PUBCHEM_PHARMACOPHORE_FEATURES>  (1) 
7
1 1 acceptor
1 16 hydrophobe
1 2 acceptor
1 3 cation
1 3 donor
1 4 donor
6 10 11 14 15 17 18 rings

>  <PUBCHEM_HEAVY_ATOM_COUNT>  (1) 
19

>  <PUBCHEM_ATOM_DEF_STEREO_COUNT>  (1) 
0

>  <PUBCHEM_ATOM_UDEF_STEREO_COUNT>  (1) 
1

>  <PUBCHEM_BOND_DEF_STEREO_COUNT>  (1) 
0

>  <PUBCHEM_BOND_UDEF_STEREO_COUNT>  (1) 
0

>  <PUBCHEM_ISOTOPIC_ATOM_COUNT>  (1) 
0

>  <PUBCHEM_COMPONENT_COUNT>  (1) 
1

>  <PUBCHEM_CACTVS_TAUTO_COUNT>  (1) 
2

>  <PUBCHEM_CONFORMER_ID>  (1) 
0000C23F00000001

>  <PUBCHEM_MMFF94_ENERGY>  (1) 
41.8122

>  <PUBCHEM_FEATURE_SELFOVERLAP>  (1) 
35.52

>  <PUBCHEM_SHAPE_FINGERPRINT>  (1) 
10763959 59 18333733507433893373
12596602 18 12901542425672692317
12730499 353 18261398823549267651
13402501 40 18187363216524578221
14251751 18 11599707507533878717
14252887 29 11169900676720195072
14341114 328 13045945711285026524
14464042 87 18059862735966452545
14528608 73 18411975876058262175
14863182 85 9439406860815065136
15003188 100 18336262435822575293
15183329 4 17846221033782250865
15210252 30 17894920671941949188
17834072 8 18272375265076583094
17859628 70 10881662603961429856
18186145 218 18336818797027152074
18335252 114 18341041931348613245
21033648 29 18187644772894391680
21033650 10 15050362009948336995
212847 35 18113616785706005602
221357 26 18341331102252798157
22289505 5 18411702088920127972
23402655 69 18272655683813189614
23558518 356 17756141550896818738
23559900 14 17988362680575905090
29717793 49 17203614761141678308
3060560 45 18201725055029497702
335352 9 18411140225825541390
4340502 62 10881406447647558444
465052 167 12031785847259038998
474 4 18336828683936164857
53794403 172 18043253646345424325
5718773 13 11815353567553713100
58260988 393 14201389478581451708
59682541 35 7997675477282879910
59682541 52 17988090993233953278
59755656 520 17603300470796771019
633830 44 18263636419473341110

>  <PUBCHEM_SHAPE_MULTIPOLES>  (1) 
369.31
15.12
2.48
0.93
27.61
1.19
-0.01
6.26
3.57
-1.92
0.04
0.03
-0.14
0.51

>  <PUBCHEM_SHAPE_SELFOVERLAP>  (1) 
734.8

>  <PUBCHEM_SHAPE_VOLUME>  (1) 
219.5

>  <PUBCHEM_COORDINATE_TYPE>  (1) 
2
5
10

$$$$
