49725
     RDKit          3D

 20 23  0  0  1  0  0  0  0  0999 V2000
   -3.7234   -1.2795   -1.4821 O   0  0  0  0  0  0  0  0  0  0  0  0
   -4.6063    0.2579    1.6529 O   0  0  0  0  0  0  0  0  0  0  0  0
   -1.9597   -0.5193   -0.0678 C   0  0  0  0  0  0  0  0  0  0  0  0
   -3.4268   -0.8769   -0.1427 C   0  0  0  0  0  0  0  0  0  0  0  0
   -1.5432    0.8110   -0.1752 C   0  0  0  0  0  0  0  0  0  0  0  0
   -4.3680    0.2799    0.2462 C   0  0  0  0  0  0  0  0  0  0  0  0
    0.8269    0.1133   -0.0392 C   0  0  0  0  0  0  0  0  0  0  0  0
    0.3773   -1.2269    0.0679 C   0  0  0  0  0  0  0  0  0  0  0  0
   -0.9954   -1.5257    0.0479 C   0  0  0  0  0  0  0  0  0  0  0  0
   -0.1721    1.1125   -0.1637 C   0  0  0  0  0  0  0  0  0  0  0  0
    2.2421    0.3827   -0.0180 C   0  0  0  0  0  0  0  0  0  0  0  0
   -2.5328    1.8842   -0.3043 C   0  0  0  0  0  0  0  0  0  0  0  0
   -3.8326    1.6409   -0.0919 C   0  0  0  0  0  0  0  0  0  0  0  0
    3.1516   -0.6996    0.1090 C   0  0  0  0  0  0  0  0  0  0  0  0
    1.3034   -2.2660    0.1905 C   0  0  0  0  0  0  0  0  0  0  0  0
    2.6696   -2.0065    0.2112 C   0  0  0  0  0  0  0  0  0  0  0  0
    2.8080    1.6789   -0.1169 C   0  0  0  0  0  0  0  0  0  0  0  0
    4.5382   -0.4709    0.1334 C   0  0  0  0  0  0  0  0  0  0  0  0
    4.1890    1.8928   -0.0913 C   0  0  0  0  0  0  0  0  0  0  0  0
    5.0543    0.8172    0.0340 C   0  0  0  0  0  0  0  0  0  0  0  0
  1  4  1  0
  2  6  1  0
  3  4  1  0
  3  5  2  0
  3  9  1  0
  4  6  1  0
  5 10  1  0
  5 12  1  0
  6 13  1  0
  7  8  1  0
  7 10  2  0
  7 11  1  0
  8  9  2  0
  8 15  1  0
 11 14  2  0
 11 17  1  0
 12 13  2  0
 14 16  1  0
 14 18  1  0
 15 16  2  0
 17 19  2  0
 18 20  2  0
 19 20  1  0
M  END
>  <PUBCHEM_COMPOUND_CID>  (1) 
49725

>  <PUBCHEM_CONFORMER_RMSD>  (1) 
0.6

>  <PUBCHEM_CONFORMER_DIVERSEORDER>  (1) 
1

>  <PUBCHEM_MMFF94_PARTIAL_CHARGES>  (1) 
28
1 -0.68
10 -0.15
12 -0.18
13 -0.29
15 -0.15
16 -0.15
17 -0.15
18 -0.15
19 -0.15
2 -0.68
20 -0.15
23 0.15
24 0.15
25 0.15
26 0.15
27 0.15
28 0.15
29 0.15
3 -0.14
30 0.4
31 0.15
32 0.4
33 0.15
34 0.15
4 0.42
5 0.03
6 0.42
9 -0.15

>  <PUBCHEM_EFFECTIVE_ROTOR_COUNT>  (1) 
0.4

>  <PUBCHEM_PHARMACOPHORE_FEATURES>  (1) 
8
1 1 acceptor
1 1 donor
1 2 acceptor
1 2 donor
6 11 14 17 18 19 20 rings
6 3 4 5 6 12 13 rings
6 3 5 7 8 9 10 rings
6 7 8 11 14 15 16 rings

>  <PUBCHEM_HEAVY_ATOM_COUNT>  (1) 
20

>  <PUBCHEM_ATOM_DEF_STEREO_COUNT>  (1) 
2

>  <PUBCHEM_ATOM_UDEF_STEREO_COUNT>  (1) 
0

>  <PUBCHEM_BOND_DEF_STEREO_COUNT>  (1) 
0

>  <PUBCHEM_BOND_UDEF_STEREO_COUNT>  (1) 
0

>  <PUBCHEM_ISOTOPIC_ATOM_COUNT>  (1) 
0

>  <PUBCHEM_COMPONENT_COUNT>  (1) 
1

>  <PUBCHEM_CACTVS_TAUTO_COUNT>  (1) 
1

>  <PUBCHEM_CONFORMER_ID>  (1) 
0000C23D00000001

>  <PUBCHEM_MMFF94_ENERGY>  (1) 
63.047

>  <PUBCHEM_FEATURE_SELFOVERLAP>  (1) 
40.666

>  <PUBCHEM_SHAPE_FINGERPRINT>  (1) 
10411042 1 16824183529895282506
10608611 8 18335416812005769548
10616163 171 18412262873751388671
10967382 1 18409165502651690660
11471102 20 18410007719915917502
11796584 16 15267071324278301180
12107183 9 17691970362642913881
12236239 1 18131633387639289775
12403814 3 18333449820717602813
12592029 89 18334577919531501026
12644460 14 18260266313734885138
13140716 1 17975142242404133409
13224815 77 18334855004592529783
13583140 156 16371273523939105609
13675066 3 18113624456364615285
138480 1 17761208821948031826
14289901 80 18340481188522786425
14787075 74 18340767142992163625
14790565 3 18263933309678884780
15196674 1 18410009923133874542
15209294 21 18130516262192507697
15442244 35 18194398879766497298
15536298 74 18341049631918850662
16945 1 18335422417006597599
17349148 13 18040150746920910132
17492 89 18339077095042687775
18186145 218 18272091573965364860
19050596 39 18411136930809911665
200 152 18201715175886882583
20645477 70 18341045207738747078
21267235 1 18410018718979249710
21501502 16 18339353085171282583
21652331 79 18408886226381977781
21709351 56 18408878525774596524
221490 88 18335989649253688970
22854114 111 18335421253339303788
22854114 59 18408324375924249664
23227448 37 18412261765575577191
23366157 5 17968659303115059986
23402539 116 18342731936127733844
23402655 69 18342172237216492717
23559900 14 18198336261229160782
335352 9 18337670802975456046
34797466 226 16199872889657809200
34934 24 18410288074111898741
350125 39 18408323255560374988
3545911 37 18410013221468486180
4214541 1 18410572864196986244
474 4 18040718103811587572
4990 188 17989212547008041980
5104073 3 18262237707528099809
542803 24 17346883346902701784
633830 44 18412826889072600718
69090 78 18412259575485173270
7364860 26 18340487747354948950
77779 3 18410855443059172884
9709674 26 18410296899848166582

>  <PUBCHEM_SHAPE_MULTIPOLES>  (1) 
399.85
9.88
2.22
0.81
0.14
0.18
-0.05
-2.69
-0.77
0.74
0.1
-0.79
0.08
-0.39

>  <PUBCHEM_SHAPE_SELFOVERLAP>  (1) 
906.735

>  <PUBCHEM_SHAPE_VOLUME>  (1) 
208.7

>  <PUBCHEM_COORDINATE_TYPE>  (1) 
2
5
10

$$$$
