49729
     RDKit          3D

 20 20  0  0  0  0  0  0  0  0999 V2000
   -6.1247    0.5803   -0.8506 O   0  0  0  0  0  0  0  0  0  0  0  0
    0.2651    2.0744    0.1752 O   0  0  0  0  0  0  0  0  0  0  0  0
   -3.0866   -0.9118    0.5816 N   0  0  0  0  0  0  0  0  0  0  0  0
    1.2518    0.0189   -0.3872 N   0  0  0  0  0  0  0  0  0  0  0  0
   -1.7779   -0.3423    0.9440 C   0  0  0  0  0  0  0  0  0  0  0  0
   -1.1568    0.2241   -0.3507 C   0  0  0  0  0  0  0  0  0  0  0  0
   -2.0037    0.7553    1.9938 C   0  0  0  0  0  0  0  0  0  0  0  0
   -0.9338   -1.4740    1.5441 C   0  0  0  0  0  0  0  0  0  0  0  0
   -3.9544    0.1188    0.0427 C   0  0  0  0  0  0  0  0  0  0  0  0
    0.1981    0.8938   -0.1559 C   0  0  0  0  0  0  0  0  0  0  0  0
   -5.3037   -0.4644   -0.3451 C   0  0  0  0  0  0  0  0  0  0  0  0
    2.6370    0.2952   -0.3001 C   0  0  0  0  0  0  0  0  0  0  0  0
    3.5648   -0.6996   -0.5651 C   0  0  0  0  0  0  0  0  0  0  0  0
    3.1485   -2.0829   -0.9478 C   0  0  0  0  0  0  0  0  0  0  0  0
    3.0352    1.5749    0.0542 C   0  0  0  0  0  0  0  0  0  0  0  0
    4.9257   -0.4074   -0.4737 C   0  0  0  0  0  0  0  0  0  0  0  0
    4.3961    1.8670    0.1454 C   0  0  0  0  0  0  0  0  0  0  0  0
    5.3412    0.8759   -0.1184 C   0  0  0  0  0  0  0  0  0  0  0  0
    2.9764   -2.9909    0.2657 C   0  0  0  0  0  0  0  0  0  0  0  0
   -7.3984    0.0947   -1.2522 C   0  0  0  0  0  0  0  0  0  0  0  0
  1 11  1  0
  1 20  1  0
  2 10  2  0
  3  5  1  0
  3  9  1  0
  4 10  1  0
  4 12  1  0
  5  6  1  0
  5  7  1  0
  5  8  1  0
  6 10  1  0
  9 11  1  0
 12 13  2  0
 12 15  1  0
 13 14  1  0
 13 16  1  0
 14 19  1  0
 15 17  2  0
 16 18  2  0
 17 18  1  0
M  END
>  <PUBCHEM_COMPOUND_CID>  (1) 
49729

>  <PUBCHEM_CONFORMER_RMSD>  (1) 
0.8

>  <PUBCHEM_CONFORMER_DIVERSEORDER>  (1) 
1
12
43
119
103
53
135
122
59
86
137
47
31
130
83
67
23
52
132
84
110
18
30
96
133
61
77
107
40
22
44
98
73
95
99
142
69
111
37
79
106
124
27
72
144
3
50
94
117
33
131
38
143
49
112
145
16
55
78
140
51
29
141
42
121
36
15
139
88
46
58
74
26
115
109
63
76
101
92
71
13
28
126
129
2
123
68
14
90
11
116
10
35
54
17
136
34
64
128
65
62
91
85
134
9
87
5
114
82
41
48
138
75
8
125
19
6
127
24
102
20
81
97
89
56
4
104
70
60
32
118
57
93
113
45
39
108
100
80
66
120
25
21
105
7

>  <PUBCHEM_MMFF94_PARTIAL_CHARGES>  (1) 
23
1 -0.56
10 0.57
11 0.28
12 0.12
13 -0.14
14 0.14
15 -0.15
16 -0.15
17 -0.15
18 -0.15
2 -0.57
20 0.28
23 0.36
3 -0.9
34 0.37
37 0.15
38 0.15
39 0.15
4 -0.55
40 0.15
5 0.27
6 0.06
9 0.27

>  <PUBCHEM_EFFECTIVE_ROTOR_COUNT>  (1) 
9

>  <PUBCHEM_PHARMACOPHORE_FEATURES>  (1) 
8
1 1 acceptor
1 19 hydrophobe
1 2 acceptor
1 3 cation
1 3 donor
1 4 donor
3 5 7 8 hydrophobe
6 12 13 15 16 17 18 rings

>  <PUBCHEM_HEAVY_ATOM_COUNT>  (1) 
20

>  <PUBCHEM_ATOM_DEF_STEREO_COUNT>  (1) 
0

>  <PUBCHEM_ATOM_UDEF_STEREO_COUNT>  (1) 
0

>  <PUBCHEM_BOND_DEF_STEREO_COUNT>  (1) 
0

>  <PUBCHEM_BOND_UDEF_STEREO_COUNT>  (1) 
0

>  <PUBCHEM_ISOTOPIC_ATOM_COUNT>  (1) 
0

>  <PUBCHEM_COMPONENT_COUNT>  (1) 
1

>  <PUBCHEM_CACTVS_TAUTO_COUNT>  (1) 
2

>  <PUBCHEM_CONFORMER_ID>  (1) 
0000C24100000001

>  <PUBCHEM_MMFF94_ENERGY>  (1) 
51.913

>  <PUBCHEM_FEATURE_SELFOVERLAP>  (1) 
40.594

>  <PUBCHEM_SHAPE_FINGERPRINT>  (1) 
10366900 7 18340502118436665408
10447042 23 18131630080044856893
11796584 16 16660648470916802738
12011746 2 18410865369240219102
12107183 9 17409669656936717242
12236239 1 17275108322999986293
13533116 47 18202565051125498299
13668630 136 17346601880779475613
1420 363 12031791379208714197
14386348 63 18113627797812365322
14573314 32 18187365402783919917
14681490 219 18409725132833314813
15183329 4 18411696557323874189
15375358 24 18187370956192373218
15635459 17 18334864892187773330
17134984 74 18341885342614177055
17834072 33 18060421330389888380
17834072 8 18186800284109267237
18222031 100 14908179768141763161
200 152 17917996083375661953
20157964 124 18411418418930065223
20279233 1 18114473322412263738
20511986 3 17845923104617069917
20645477 70 18271528607027357550
21065198 48 17775297019063292544
21279426 13 18116991088286926173
21285901 2 17822289041948230431
22079108 93 10087637096386524981
2215653 11 18335423456441404943
22224240 67 18272363222784889720
23402539 116 17967809496564006405
23536379 177 18272932713778336869
23557571 272 17167859734434648188
23559900 14 18337955700450504720
23622692 118 18196371416859983762
2871803 45 18409455765331988054
29717793 49 17632304453586449148
3009799 131 18413666920594170745
33824 294 18411142441970662986
4072396 5 18261099791067452090
495365 180 18341043103684527618
5283173 99 18262514793381153373
59682541 52 18338785737936261303
59755656 215 18261110755422795358
7495541 125 11312059846489896828
8988823 20 18411978057495382404
9709674 26 18338249180240511642

>  <PUBCHEM_SHAPE_MULTIPOLES>  (1) 
389.89
14.47
2.11
1.21
20.88
1.03
0.45
-1.18
-6.12
-3.19
0.2
1.27
0.14
0.5

>  <PUBCHEM_SHAPE_SELFOVERLAP>  (1) 
779.795

>  <PUBCHEM_SHAPE_VOLUME>  (1) 
231.1

>  <PUBCHEM_COORDINATE_TYPE>  (1) 
2
5
10

$$$$
