49723
     RDKit          3D

 24 26  0  0  1  0  0  0  0  0999 V2000
    6.2526    1.7481   -0.3956 O   0  0  0  0  0  0  0  0  0  0  0  0
    0.2216   -0.0349    0.4982 O   0  0  0  0  0  0  0  0  0  0  0  0
   -2.4065   -2.0143   -1.0539 O   0  0  0  0  0  0  0  0  0  0  0  0
   -4.0534   -0.2269    0.4653 N   0  0  0  0  0  0  0  0  0  0  0  0
   -3.6886    2.1361    0.1174 N   0  0  0  0  0  0  0  0  0  0  0  0
    6.6264   -0.5699   -0.4909 C   0  0  0  0  0  0  0  0  0  0  0  0
    7.1488   -1.2219    0.7350 C   0  0  0  0  0  0  0  0  0  0  0  0
    8.0602   -0.4155   -0.1428 C   0  0  0  0  0  0  0  0  0  0  0  0
    5.7264    0.6273   -0.3240 C   0  0  0  0  0  0  0  0  0  0  0  0
    4.2978    0.4561   -0.1116 C   0  0  0  0  0  0  0  0  0  0  0  0
    3.4760    1.5727    0.0421 C   0  0  0  0  0  0  0  0  0  0  0  0
    3.7497   -0.8255   -0.0610 C   0  0  0  0  0  0  0  0  0  0  0  0
   -1.8361   -0.8764   -0.4063 C   0  0  0  0  0  0  0  0  0  0  0  0
   -2.6660   -0.5148    0.8256 C   0  0  0  0  0  0  0  0  0  0  0  0
    2.1061    1.4076    0.2465 C   0  0  0  0  0  0  0  0  0  0  0  0
    2.3797   -0.9906    0.1432 C   0  0  0  0  0  0  0  0  0  0  0  0
    1.5661    0.1270    0.2958 C   0  0  0  0  0  0  0  0  0  0  0  0
   -0.3785   -1.1890   -0.0822 C   0  0  0  0  0  0  0  0  0  0  0  0
   -4.4563    1.0815    0.1384 C   0  0  0  0  0  0  0  0  0  0  0  0
   -4.9951   -1.2469    0.4447 C   0  0  0  0  0  0  0  0  0  0  0  0
   -6.7474    0.2800   -0.2202 C   0  0  0  0  0  0  0  0  0  0  0  0
   -5.9018    1.3268   -0.2251 C   0  0  0  0  0  0  0  0  0  0  0  0
   -6.2828   -1.0542    0.1261 C   0  0  0  0  0  0  0  0  0  0  0  0
   -8.1988    0.4177   -0.5648 C   0  0  0  0  0  0  0  0  0  0  0  0
  1  9  2  0
  2 17  1  0
  2 18  1  0
  3 13  1  0
  4 14  1  0
  4 19  1  0
  4 20  1  0
  5 19  2  0
  6  7  1  0
  6  8  1  0
  6  9  1  0
  7  8  1  0
  9 10  1  0
 10 11  2  0
 10 12  1  0
 11 15  1  0
 12 16  2  0
 13 14  1  0
 13 18  1  0
 15 17  2  0
 16 17  1  0
 19 22  1  0
 20 23  2  0
 21 22  2  0
 21 23  1  0
 21 24  1  0
M  END
>  <PUBCHEM_COMPOUND_CID>  (1) 
49723

>  <PUBCHEM_CONFORMER_RMSD>  (1) 
1

>  <PUBCHEM_CONFORMER_DIVERSEORDER>  (1) 
34
383
177
547
11
185
563
397
303
17
64
310
123
491
423
124
19
554
104
549
200
507
514
248
1
559
567
158
539
551
23
407
420
307
42
162
370
21
192
316
218
405
524
3
509
61
176
32
87
517
84
160
152
276
478
2
565
511
88
441
427
369
33
569
267
499
462
223
211
456
439
220
372
153
121
412
530
196
81
262
68
257
411
274
69
435
425
113
5
31
210
558
201
77
26
418
174
261
119
125
570
268
322
341
122
168
454
96
445
18
28
519
47
92
74
98
287
117
13
319
6
337
85
359
71
14
141
365
241
429
37
8
36
101
368
10
52
421
40
204
27
16
189
251
9
444
106
7
180
30
314
191

>  <PUBCHEM_MMFF94_PARTIAL_CHARGES>  (1) 
38
1 -0.57
10 0.09
11 -0.15
12 -0.15
13 0.28
14 0.37
15 -0.15
16 -0.15
17 0.08
18 0.28
19 0.49
2 -0.36
20 -0.05
21 -0.14
22 -0.14
23 -0.15
24 0.14
25 0.1
26 0.1
27 0.1
28 0.1
29 0.1
3 -0.68
30 0.15
31 0.15
35 0.15
36 0.15
39 0.15
4 -0.52
40 0.15
41 0.15
42 0.4
46 0.4
5 -0.85
6 -0.1
7 -0.2
8 -0.2
9 0.48

>  <PUBCHEM_EFFECTIVE_ROTOR_COUNT>  (1) 
7.6

>  <PUBCHEM_PHARMACOPHORE_FEATURES>  (1) 
8
1 1 acceptor
1 2 acceptor
1 3 acceptor
1 3 donor
1 5 donor
3 4 5 19 cation
6 10 11 12 15 16 17 rings
6 4 19 20 21 22 23 rings

>  <PUBCHEM_HEAVY_ATOM_COUNT>  (1) 
24

>  <PUBCHEM_ATOM_DEF_STEREO_COUNT>  (1) 
0

>  <PUBCHEM_ATOM_UDEF_STEREO_COUNT>  (1) 
1

>  <PUBCHEM_BOND_DEF_STEREO_COUNT>  (1) 
0

>  <PUBCHEM_BOND_UDEF_STEREO_COUNT>  (1) 
0

>  <PUBCHEM_ISOTOPIC_ATOM_COUNT>  (1) 
0

>  <PUBCHEM_COMPONENT_COUNT>  (1) 
1

>  <PUBCHEM_CACTVS_TAUTO_COUNT>  (1) 
2

>  <PUBCHEM_CONFORMER_ID>  (1) 
0000C23B00000022

>  <PUBCHEM_MMFF94_ENERGY>  (1) 
72.9318

>  <PUBCHEM_FEATURE_SELFOVERLAP>  (1) 
40.596

>  <PUBCHEM_SHAPE_FINGERPRINT>  (1) 
100830 39 18409166584825655021
10299344 5 18040716961487456242
10670039 82 18343017749375302737
10730089 173 18412263935167018529
11315181 36 18040721372719413249
11719270 70 18201438056783158822
12166972 35 18410858801639904136
12236239 1 18409168831209134122
12516196 113 12031791361928754762
13668630 136 16272212998275911029
14251752 14 18412544306094424130
14251764 18 18335138669992154954
14251764 46 17704072893351609838
14933364 13 18334296474160462565
15142383 8 18334011688439148068
15183329 4 18411705365958803112
15338160 23 14562796713238688239
15419008 47 17346590855556820424
15461852 350 18342173402107678831
15849732 13 18410013247153680086
19611394 137 17970080027052044371
20281389 69 18409166627885948296
21150785 3 16917065559801753287
21267235 1 18410862074398935792
21315763 28 18409449193704932010
21792934 111 18341322350243521096
22224240 67 14851606600310049713
23198884 109 17967534583959701033
23559900 14 17773868865033224057
28498 318 18409730638954709174
3004659 81 18335419075680602504
335352 9 18412546518382286012
3545911 37 18273215308971365427
4073 2 17894918480991494562
4325135 7 17917710202342546749
4339292 15 17345743218692913647
54446538 1 18409731767892901893
559249 180 18202562907942462886
59682541 35 8430305840486071789
59755656 215 18341335517784971334
59755656 520 17821725065746272451

>  <PUBCHEM_SHAPE_MULTIPOLES>  (1) 
466.34
24.75
1.73
0.77
1.9
0.34
-0.01
0.97
-2.09
-0.28
-0.07
-0.08
-0.12
-0.2

>  <PUBCHEM_SHAPE_SELFOVERLAP>  (1) 
984.046

>  <PUBCHEM_SHAPE_VOLUME>  (1) 
261.6

>  <PUBCHEM_COORDINATE_TYPE>  (1) 
2
5
10

$$$$
