49736
     RDKit          3D

 27 30  0  0  0  0  0  0  0  0999 V2000
    0.1892    0.3454   -0.3270 O   0  0  0  0  0  0  0  0  0  0  0  0
   -4.4509   -0.6853   -0.5244 O   0  0  0  0  0  0  0  0  0  0  0  0
   -0.5858    4.1083    1.0166 O   0  0  0  0  0  0  0  0  0  0  0  0
   -0.6834   -2.1416   -0.1471 N   0  0  0  0  0  0  0  0  0  0  0  0
   -1.0546   -2.2570    1.2702 C   0  0  0  0  0  0  0  0  0  0  0  0
   -0.3254   -3.4508   -0.7108 C   0  0  0  0  0  0  0  0  0  0  0  0
    0.0918   -2.8447    2.0946 C   0  0  0  0  0  0  0  0  0  0  0  0
    0.8449   -4.0774    0.0488 C   0  0  0  0  0  0  0  0  0  0  0  0
    0.5418   -4.1909    1.5384 C   0  0  0  0  0  0  0  0  0  0  0  0
   -1.7718   -1.5350   -0.9131 C   0  0  0  0  0  0  0  0  0  0  0  0
   -2.1126   -0.1635   -0.4234 C   0  0  0  0  0  0  0  0  0  0  0  0
   -1.1027    0.7558   -0.1373 C   0  0  0  0  0  0  0  0  0  0  0  0
   -3.4489    0.1970   -0.2508 C   0  0  0  0  0  0  0  0  0  0  0  0
   -1.4278    2.0289    0.3190 C   0  0  0  0  0  0  0  0  0  0  0  0
   -3.7745    1.4741    0.2064 C   0  0  0  0  0  0  0  0  0  0  0  0
   -2.7654    2.3945    0.4928 C   0  0  0  0  0  0  0  0  0  0  0  0
   -0.3433    2.9772    0.6147 C   0  0  0  0  0  0  0  0  0  0  0  0
    1.2140    1.2353   -0.0555 C   0  0  0  0  0  0  0  0  0  0  0  0
    1.0514    2.4942    0.3995 C   0  0  0  0  0  0  0  0  0  0  0  0
    2.5359    0.6482   -0.3169 C   0  0  0  0  0  0  0  0  0  0  0  0
    2.1384    3.4757    0.7309 C   0  0  0  0  0  0  0  0  0  0  0  0
   -4.9688   -0.6852   -1.8529 C   0  0  0  0  0  0  0  0  0  0  0  0
    3.2084   -0.0359    0.6961 C   0  0  0  0  0  0  0  0  0  0  0  0
    3.1187    0.7745   -1.5782 C   0  0  0  0  0  0  0  0  0  0  0  0
    4.4629   -0.5929    0.4483 C   0  0  0  0  0  0  0  0  0  0  0  0
    4.3732    0.2173   -1.8261 C   0  0  0  0  0  0  0  0  0  0  0  0
    5.0452   -0.4663   -0.8128 C   0  0  0  0  0  0  0  0  0  0  0  0
  1 12  1  0
  1 18  1  0
  2 13  1  0
  2 22  1  0
  3 17  2  0
  4  5  1  0
  4  6  1  0
  4 10  1  0
  5  7  1  0
  6  8  1  0
  7  9  1  0
  8  9  1  0
 10 11  1  0
 11 12  2  0
 11 13  1  0
 12 14  1  0
 13 15  2  0
 14 16  2  0
 14 17  1  0
 15 16  1  0
 17 19  1  0
 18 19  2  0
 18 20  1  0
 19 21  1  0
 20 23  2  0
 20 24  1  0
 23 25  1  0
 24 26  2  0
 25 27  2  0
 26 27  1  0
M  END
>  <PUBCHEM_COMPOUND_CID>  (1) 
49736

>  <PUBCHEM_CONFORMER_RMSD>  (1) 
0.8

>  <PUBCHEM_CONFORMER_DIVERSEORDER>  (1) 
2
8
4
3
7
1
5
6

>  <PUBCHEM_MMFF94_PARTIAL_CHARGES>  (1) 
31
1 -0.16
10 0.41
11 -0.14
12 0.08
13 0.08
14 0.09
15 -0.15
16 -0.15
17 0.47
18 0.05
19 -0.12
2 -0.36
20 0.03
21 0.14
22 0.28
23 -0.15
24 -0.15
25 -0.15
26 -0.15
27 -0.15
3 -0.57
4 -0.81
40 0.15
41 0.15
48 0.15
49 0.15
5 0.27
50 0.15
51 0.15
52 0.15
6 0.27

>  <PUBCHEM_EFFECTIVE_ROTOR_COUNT>  (1) 
5.2

>  <PUBCHEM_PHARMACOPHORE_FEATURES>  (1) 
8
1 1 acceptor
1 2 acceptor
1 3 acceptor
1 4 cation
6 1 12 14 17 18 19 rings
6 11 12 13 14 15 16 rings
6 20 23 24 25 26 27 rings
6 4 5 6 7 8 9 rings

>  <PUBCHEM_HEAVY_ATOM_COUNT>  (1) 
27

>  <PUBCHEM_ATOM_DEF_STEREO_COUNT>  (1) 
0

>  <PUBCHEM_ATOM_UDEF_STEREO_COUNT>  (1) 
0

>  <PUBCHEM_BOND_DEF_STEREO_COUNT>  (1) 
0

>  <PUBCHEM_BOND_UDEF_STEREO_COUNT>  (1) 
0

>  <PUBCHEM_ISOTOPIC_ATOM_COUNT>  (1) 
0

>  <PUBCHEM_COMPONENT_COUNT>  (1) 
1

>  <PUBCHEM_CACTVS_TAUTO_COUNT>  (1) 
1

>  <PUBCHEM_CONFORMER_ID>  (1) 
0000C24800000002

>  <PUBCHEM_MMFF94_ENERGY>  (1) 
80.7234

>  <PUBCHEM_FEATURE_SELFOVERLAP>  (1) 
40.626

>  <PUBCHEM_SHAPE_FINGERPRINT>  (1) 
10006869 2 17695641645470872321
10675989 125 18410283701419278733
10693767 8 17773012350308471335
10906281 52 18200330921240123316
1100329 8 18267291200656406211
11578080 2 16483873551983350259
12156800 1 16122406647836055236
12422481 6 17255092582001865794
12553582 1 18269571566534700636
12788726 201 18340779169539038652
13140716 1 18342463642580364713
13149001 5 18193836178704830029
133893 2 17680990690935888883
14251757 5 18192172571005765710
14790565 3 18340222807443827824
14931854 50 18409448064012619366
15209289 33 18413112753474316837
15420108 30 17413049599327071073
16752209 62 18409727339876435296
17909252 39 16550285227360193327
19591789 44 18411418453447974515
20028762 73 18059015115839264655
20600515 1 18270099306373077832
20775438 99 17266065046252776439
20905425 154 17983295928319416350
21421861 104 17832154822334910617
23366157 5 17467652398480125158
23559900 14 18198899408408277308
25147074 1 18125993872584253349
3084891 72 18411423886470918606
3178227 256 18337687394623927289
3298306 158 18262224565376689799
3383291 50 18408605885636031514
338550 245 18048605811551417414
43471831 8 18193561064722286682
463206 1 18338517413379322811
59755656 215 18340486669391582365
6287921 2 17836354948242799154
81228 2 17250325571802941871
9709674 26 17909265020152511517

>  <PUBCHEM_SHAPE_MULTIPOLES>  (1) 
533.06
7.73
5.28
1.5
1.56
2.42
0.08
-1.01
4.01
-0.06
-2.73
0.23
0.76
-0.77

>  <PUBCHEM_SHAPE_SELFOVERLAP>  (1) 
1160.943

>  <PUBCHEM_SHAPE_VOLUME>  (1) 
290.2

>  <PUBCHEM_COORDINATE_TYPE>  (1) 
2
5
10

$$$$
