49740
     RDKit          3D

 28 31  0  0  0  0  0  0  0  0999 V2000
   -0.1092    0.1800   -0.4250 O   0  0  0  0  0  0  0  0  0  0  0  0
    4.6325   -0.2079   -0.4230 O   0  0  0  0  0  0  0  0  0  0  0  0
    0.0941    4.0821    0.7156 O   0  0  0  0  0  0  0  0  0  0  0  0
    1.0825   -2.1310   -0.0638 N   0  0  0  0  0  0  0  0  0  0  0  0
    1.4172   -2.1067    1.3671 C   0  0  0  0  0  0  0  0  0  0  0  0
    0.9125   -3.5088   -0.5463 C   0  0  0  0  0  0  0  0  0  0  0  0
    0.3272   -2.7827    2.2004 C   0  0  0  0  0  0  0  0  0  0  0  0
   -0.1937   -4.2306    0.2244 C   0  0  0  0  0  0  0  0  0  0  0  0
    0.0707   -4.2084    1.7257 C   0  0  0  0  0  0  0  0  0  0  0  0
    2.1104   -1.4398   -0.8416 C   0  0  0  0  0  0  0  0  0  0  0  0
    2.2427   -0.0101   -0.4230 C   0  0  0  0  0  0  0  0  0  0  0  0
    1.1068    0.7749   -0.2218 C   0  0  0  0  0  0  0  0  0  0  0  0
    3.5098    0.5408   -0.2323 C   0  0  0  0  0  0  0  0  0  0  0  0
    1.2378    2.1039    0.1677 C   0  0  0  0  0  0  0  0  0  0  0  0
   -1.2829    2.2261    0.1453 C   0  0  0  0  0  0  0  0  0  0  0  0
    3.6409    1.8738    0.1583 C   0  0  0  0  0  0  0  0  0  0  0  0
    0.0236    2.9082    0.3739 C   0  0  0  0  0  0  0  0  0  0  0  0
    2.5056    2.6599    0.3593 C   0  0  0  0  0  0  0  0  0  0  0  0
   -1.2546    0.9335   -0.2371 C   0  0  0  0  0  0  0  0  0  0  0  0
   -2.5057    3.0652    0.3803 C   0  0  0  0  0  0  0  0  0  0  0  0
   -2.4738    0.1565   -0.4991 C   0  0  0  0  0  0  0  0  0  0  0  0
   -2.9756    2.9776    1.8186 C   0  0  0  0  0  0  0  0  0  0  0  0
   -3.0228    0.1306   -1.7815 C   0  0  0  0  0  0  0  0  0  0  0  0
   -3.0828   -0.5563    0.5340 C   0  0  0  0  0  0  0  0  0  0  0  0
    5.1954   -0.2090   -1.7332 C   0  0  0  0  0  0  0  0  0  0  0  0
   -4.1800   -0.6075   -2.0305 C   0  0  0  0  0  0  0  0  0  0  0  0
   -4.2399   -1.2944    0.2850 C   0  0  0  0  0  0  0  0  0  0  0  0
   -4.7885   -1.3199   -0.9973 C   0  0  0  0  0  0  0  0  0  0  0  0
  1 12  1  0
  1 19  1  0
  2 13  1  0
  2 25  1  0
  3 17  2  0
  4  5  1  0
  4  6  1  0
  4 10  1  0
  5  7  1  0
  6  8  1  0
  7  9  1  0
  8  9  1  0
 10 11  1  0
 11 12  2  0
 11 13  1  0
 12 14  1  0
 13 16  2  0
 14 17  1  0
 14 18  2  0
 15 17  1  0
 15 19  2  0
 15 20  1  0
 16 18  1  0
 19 21  1  0
 20 22  1  0
 21 23  2  0
 21 24  1  0
 23 26  1  0
 24 27  2  0
 26 28  2  0
 27 28  1  0
M  END
>  <PUBCHEM_COMPOUND_CID>  (1) 
49740

>  <PUBCHEM_CONFORMER_RMSD>  (1) 
0.8

>  <PUBCHEM_CONFORMER_DIVERSEORDER>  (1) 
1
2
4
10
9
3
5
6
7
8

>  <PUBCHEM_MMFF94_PARTIAL_CHARGES>  (1) 
31
1 -0.16
10 0.41
11 -0.14
12 0.08
13 0.08
14 0.09
15 -0.12
16 -0.15
17 0.47
18 -0.15
19 0.05
2 -0.36
20 0.14
21 0.03
23 -0.15
24 -0.15
25 0.28
26 -0.15
27 -0.15
28 -0.15
3 -0.57
4 -0.81
41 0.15
42 0.15
48 0.15
49 0.15
5 0.27
53 0.15
54 0.15
55 0.15
6 0.27

>  <PUBCHEM_EFFECTIVE_ROTOR_COUNT>  (1) 
6.2

>  <PUBCHEM_PHARMACOPHORE_FEATURES>  (1) 
9
1 1 acceptor
1 2 acceptor
1 22 hydrophobe
1 3 acceptor
1 4 cation
6 1 12 14 15 17 19 rings
6 11 12 13 14 16 18 rings
6 21 23 24 26 27 28 rings
6 4 5 6 7 8 9 rings

>  <PUBCHEM_HEAVY_ATOM_COUNT>  (1) 
28

>  <PUBCHEM_ATOM_DEF_STEREO_COUNT>  (1) 
0

>  <PUBCHEM_ATOM_UDEF_STEREO_COUNT>  (1) 
0

>  <PUBCHEM_BOND_DEF_STEREO_COUNT>  (1) 
0

>  <PUBCHEM_BOND_UDEF_STEREO_COUNT>  (1) 
0

>  <PUBCHEM_ISOTOPIC_ATOM_COUNT>  (1) 
0

>  <PUBCHEM_COMPONENT_COUNT>  (1) 
1

>  <PUBCHEM_CACTVS_TAUTO_COUNT>  (1) 
1

>  <PUBCHEM_CONFORMER_ID>  (1) 
0000C24C00000001

>  <PUBCHEM_MMFF94_ENERGY>  (1) 
80.0358

>  <PUBCHEM_FEATURE_SELFOVERLAP>  (1) 
45.7

>  <PUBCHEM_SHAPE_FINGERPRINT>  (1) 
108634 29 18048876591769696678
1100329 8 18193827378548838610
11578080 2 17243861147331301572
12128747 34 18042141873519129921
12156800 1 17044531066895499371
12553582 1 18341886394790830951
13140716 1 17477194398584263624
13149001 5 18121504810719430094
133893 2 17460589221456057930
13402501 40 18117281573994676011
13911987 19 18262803002523115068
140371 6 18124035899340837024
14178342 30 18197764523492928024
14787075 74 18265612267627377983
15324884 4 17608353968604530669
19319366 153 17324400335406444823
19591789 44 18412830187697134948
20028762 73 18130782421126528278
21197605 99 17402057090047499515
21421861 104 18047756996642391857
22393880 68 18337654413169401231
283562 15 18411980256234288352
2871803 45 18411693309569209797
3298306 158 18188191191814303895
3380486 145 17687767329000636946
3383291 50 18409162200418861970
34934 24 18197223533522875757
352729 6 18122909999633694428
4409770 3 18118150128272577414
44802255 64 17022905683759877366
463206 1 18197486545057537343
5104073 3 18131067096354683440
563151 40 17765756488224286716
57527295 17 18122030223413059077
70251023 43 18060128877940934757
7097593 13 17761492491346244201
81228 2 16602640719646972715

>  <PUBCHEM_SHAPE_MULTIPOLES>  (1) 
553.64
7.73
5.44
1.62
0.06
2.13
-0.12
-0.6
3.91
-0.12
-3.07
-0.71
0.8
-0.8

>  <PUBCHEM_SHAPE_SELFOVERLAP>  (1) 
1200.788

>  <PUBCHEM_SHAPE_VOLUME>  (1) 
302.5

>  <PUBCHEM_COORDINATE_TYPE>  (1) 
2
5
10

$$$$
