49751
     RDKit          3D

 14 14  0  0  0  0  0  0  0  0999 V2000
   -2.7823   -1.6932    0.4748 O   0  0  0  0  0  0  0  0  0  0  0  0
   -2.7315    1.7096   -0.5014 O   0  0  0  0  0  0  0  0  0  0  0  0
    3.9126    1.2868    0.2176 O   0  0  0  0  0  0  0  0  0  0  0  0
    4.1370   -0.8313   -0.3136 O   0  0  0  0  0  0  0  0  0  0  0  0
   -2.1465   -0.4697    0.1256 N   0  0  0  0  0  0  0  0  0  0  0  0
    3.4207    0.1595   -0.0311 N   0  0  0  0  0  0  0  0  0  0  0  0
   -0.7606   -0.3131    0.0865 C   0  0  0  0  0  0  0  0  0  0  0  0
   -0.1915    0.9307    0.3595 C   0  0  0  0  0  0  0  0  0  0  0  0
    0.0556   -1.4003   -0.2256 C   0  0  0  0  0  0  0  0  0  0  0  0
    2.0103    0.0001    0.0085 C   0  0  0  0  0  0  0  0  0  0  0  0
    1.1941    1.0873    0.3206 C   0  0  0  0  0  0  0  0  0  0  0  0
    1.4411   -1.2437   -0.2645 C   0  0  0  0  0  0  0  0  0  0  0  0
   -3.0449    0.5644   -0.1760 C   0  0  0  0  0  0  0  0  0  0  0  0
   -4.5140    0.2127   -0.0811 C   0  0  0  0  0  0  0  0  0  0  0  0
  1  5  1  0
  2 13  2  0
  3  6  1  0
  4  6  2  0
  5  7  1  0
  5 13  1  0
  6 10  1  0
  7  8  2  0
  7  9  1  0
  8 11  1  0
  9 12  2  0
 10 11  2  0
 10 12  1  0
 13 14  1  0
M  CHG  2   3  -1   6   1
M  END
>  <PUBCHEM_COMPOUND_CID>  (1) 
49751

>  <PUBCHEM_CONFORMER_RMSD>  (1) 
0.6

>  <PUBCHEM_CONFORMER_DIVERSEORDER>  (1) 
1
3
2
4
5
6

>  <PUBCHEM_MMFF94_PARTIAL_CHARGES>  (1) 
19
1 -0.44
10 0.13
11 -0.15
12 -0.15
13 0.57
14 0.06
15 0.15
16 0.15
17 0.15
18 0.15
2 -0.57
22 0.4
3 -0.52
4 -0.52
5 -0.14
6 0.91
7 0.12
8 -0.15
9 -0.15

>  <PUBCHEM_EFFECTIVE_ROTOR_COUNT>  (1) 
3

>  <PUBCHEM_PHARMACOPHORE_FEATURES>  (1) 
5
1 2 acceptor
1 3 acceptor
1 3 anion
1 4 acceptor
6 7 8 9 10 11 12 rings

>  <PUBCHEM_HEAVY_ATOM_COUNT>  (1) 
14

>  <PUBCHEM_ATOM_DEF_STEREO_COUNT>  (1) 
0

>  <PUBCHEM_ATOM_UDEF_STEREO_COUNT>  (1) 
0

>  <PUBCHEM_BOND_DEF_STEREO_COUNT>  (1) 
0

>  <PUBCHEM_BOND_UDEF_STEREO_COUNT>  (1) 
0

>  <PUBCHEM_ISOTOPIC_ATOM_COUNT>  (1) 
0

>  <PUBCHEM_COMPONENT_COUNT>  (1) 
1

>  <PUBCHEM_CACTVS_TAUTO_COUNT>  (1) 
1

>  <PUBCHEM_CONFORMER_ID>  (1) 
0000C25700000001

>  <PUBCHEM_MMFF94_ENERGY>  (1) 
51.9923

>  <PUBCHEM_FEATURE_SELFOVERLAP>  (1) 
25.453

>  <PUBCHEM_SHAPE_FINGERPRINT>  (1) 
10219947 1 18060142046068038246
10608611 8 18410571777564972564
11062470 55 18410293609691688505
11132069 177 18408318908325354288
11401426 45 18130781261547836050
11471102 20 18343017791807419412
11543360 7 14836115611172546600
12032990 46 18341902895844308862
124424 183 18409446972885190602
12932764 1 14117518701296744691
13081056 2 18411138026047931100
13380535 76 18410292497659519471
13760787 19 17894915135333101410
14325111 11 18411136952574879000
14911166 2 18343869909382570892
14943859 89 18187363233667004241
14993402 34 16486971812525658988
15219456 202 18411422799659686807
15775835 57 18273213110232816719
16945 1 18340497676749241793
18175812 5 18410293622755938686
18186145 218 18273225192070882648
19026448 5 16950563307150454154
200 152 17561361764312530039
20201158 50 18413109442112436947
20279233 1 18412832377914262479
20645477 70 17917152710823534662
23402539 116 18333723629272389047
23402655 69 18271515396056231485
23559900 14 18342738516750665682
2748010 2 18198057178021356088
3312278 4 18412547604413042803
5104073 3 18410855477313365203
528886 8 18413101758152142011
53812653 166 18342172280208272808
69090 78 18272083916086317903
7364860 26 18194681471429982274
8809292 202 18334581269400393235

>  <PUBCHEM_SHAPE_MULTIPOLES>  (1) 
254.67
7.37
1.55
0.64
0.17
0.1
0
-0.97
-0.42
0.11
0
0.09
0
0.49

>  <PUBCHEM_SHAPE_SELFOVERLAP>  (1) 
530.504

>  <PUBCHEM_SHAPE_VOLUME>  (1) 
145.2

>  <PUBCHEM_COORDINATE_TYPE>  (1) 
2
5
10

$$$$
