49779
     RDKit          3D

 21 21  0  0  0  0  0  0  0  0999 V2000
   -0.1205   -3.1068    0.9084 I   0  0  0  0  0  0  0  0  0  0  0  0
   -2.7874    2.3090   -0.0099 I   0  0  0  0  0  0  0  0  0  0  0  0
    3.3021    1.8849    0.1216 I   0  0  0  0  0  0  0  0  0  0  0  0
   -2.9491   -0.9319    1.6396 O   0  0  0  0  0  0  0  0  0  0  0  0
    0.3854    3.4769   -1.4443 O   0  0  0  0  0  0  0  0  0  0  0  0
    0.3780    4.0345    0.7593 O   0  0  0  0  0  0  0  0  0  0  0  0
    2.9283   -1.8607   -1.5870 O   0  0  0  0  0  0  0  0  0  0  0  0
   -3.0280   -1.3748   -0.6544 N   0  0  0  0  0  0  0  0  0  0  0  0
    2.4454   -1.1822    0.6169 N   0  0  0  0  0  0  0  0  0  0  0  0
   -1.1249   -0.2399    0.4250 C   0  0  0  0  0  0  0  0  0  0  0  0
    1.2848   -0.4078    0.4756 C   0  0  0  0  0  0  0  0  0  0  0  0
    0.0298   -1.0104    0.5625 C   0  0  0  0  0  0  0  0  0  0  0  0
   -1.0247    1.1330    0.2004 C   0  0  0  0  0  0  0  0  0  0  0  0
    0.2303    1.7356    0.1134 C   0  0  0  0  0  0  0  0  0  0  0  0
    1.3851    0.9653    0.2510 C   0  0  0  0  0  0  0  0  0  0  0  0
   -2.4421   -0.8723    0.5163 C   0  0  0  0  0  0  0  0  0  0  0  0
   -4.3302   -2.0230   -0.5868 C   0  0  0  0  0  0  0  0  0  0  0  0
   -2.4254   -1.3027   -1.9837 C   0  0  0  0  0  0  0  0  0  0  0  0
    0.3360    3.1766   -0.1211 C   0  0  0  0  0  0  0  0  0  0  0  0
    3.1670   -1.8370   -0.3839 C   0  0  0  0  0  0  0  0  0  0  0  0
    4.3601   -2.5662    0.1810 C   0  0  0  0  0  0  0  0  0  0  0  0
  1 12  1  0
  2 13  1  0
  3 15  1  0
  4 16  2  0
  5 19  1  0
  6 19  2  0
  7 20  2  0
  8 16  1  0
  8 17  1  0
  8 18  1  0
  9 11  1  0
  9 20  1  0
 10 12  2  0
 10 13  1  0
 10 16  1  0
 11 12  1  0
 11 15  2  0
 13 14  2  0
 14 15  1  0
 14 19  1  0
 20 21  1  0
M  END
>  <PUBCHEM_COMPOUND_CID>  (1) 
49779

>  <PUBCHEM_CONFORMER_RMSD>  (1) 
0.8

>  <PUBCHEM_CONFORMER_DIVERSEORDER>  (1) 
1
2
3
4

>  <PUBCHEM_MMFF94_PARTIAL_CHARGES>  (1) 
23
1 -0.08
10 0.09
11 0.12
12 0.08
13 0.08
14 0.09
15 0.08
16 0.54
17 0.3
18 0.3
19 0.63
2 -0.08
20 0.57
21 0.06
22 0.37
3 -0.08
32 0.5
4 -0.57
5 -0.65
6 -0.57
7 -0.57
8 -0.66
9 -0.55

>  <PUBCHEM_EFFECTIVE_ROTOR_COUNT>  (1) 
5

>  <PUBCHEM_PHARMACOPHORE_FEATURES>  (1) 
10
1 1 hydrophobe
1 2 hydrophobe
1 3 hydrophobe
1 4 acceptor
1 5 acceptor
1 6 acceptor
1 7 acceptor
1 9 donor
3 5 6 19 anion
6 10 11 12 13 14 15 rings

>  <PUBCHEM_HEAVY_ATOM_COUNT>  (1) 
21

>  <PUBCHEM_ATOM_DEF_STEREO_COUNT>  (1) 
0

>  <PUBCHEM_ATOM_UDEF_STEREO_COUNT>  (1) 
0

>  <PUBCHEM_BOND_DEF_STEREO_COUNT>  (1) 
0

>  <PUBCHEM_BOND_UDEF_STEREO_COUNT>  (1) 
0

>  <PUBCHEM_ISOTOPIC_ATOM_COUNT>  (1) 
0

>  <PUBCHEM_COMPONENT_COUNT>  (1) 
1

>  <PUBCHEM_CACTVS_TAUTO_COUNT>  (1) 
2

>  <PUBCHEM_CONFORMER_ID>  (1) 
0000C27300000001

>  <PUBCHEM_MMFF94_ENERGY>  (1) 
98.3049

>  <PUBCHEM_FEATURE_SELFOVERLAP>  (1) 
50.804

>  <PUBCHEM_SHAPE_FINGERPRINT>  (1) 
10411042 1 18410572872792546531
10906281 52 18191312782424072200
10967382 1 18192996143305179600
1100329 8 18266459797882584065
12553582 1 18266467679337105880
13140716 1 18337397023984112440
14790565 3 17834691396061986600
15042514 8 18122628258284608987
16945 1 18192997251248564360
1813 80 18343033180696768983
19591789 44 18337116644424359721
20600515 1 18042386032970516696
20739085 24 18120123677917536521
21041028 32 18338815428454360697
21524375 3 16892286149688260817
22182313 1 18334571343403982849
23114952 82 17970621012009775285
2334 1 18408887347320956560
23402539 116 18265892467732725814
23419403 2 17113748441841378409
23526113 38 18187917447652021739
23557571 272 18341333293297736914
23559900 14 18124874561205131330
23566358 2 18336815459784945949
23598291 2 18202012022884199435
238 59 17614799275232401471
2748010 2 18408321068757350800
3060560 45 17979346783580197620
34934 24 18049440344575943243
352729 6 16463326467125510096
6992083 37 18058464122720594307
7364860 26 18196654227033343000
81228 2 18120372064582230048

>  <PUBCHEM_SHAPE_MULTIPOLES>  (1) 
434.54
6.29
4.82
1.26
0.86
2.74
-0.38
-4.04
-1.12
1.04
0.02
-0.49
-0.44
-0.05

>  <PUBCHEM_SHAPE_SELFOVERLAP>  (1) 
842.973

>  <PUBCHEM_SHAPE_VOLUME>  (1) 
272.8

>  <PUBCHEM_COORDINATE_TYPE>  (1) 
2
5
10

$$$$
