4977
     RDKit          3D

 17 18  0  0  1  0  0  0  0  0999 V2000
   -3.6483   -0.7720    1.1762 O   0  0  0  0  0  0  0  0  0  0  0  0
   -0.3749    2.2442   -0.4033 O   0  0  0  0  0  0  0  0  0  0  0  0
    3.8841    0.4652    0.4387 O   0  0  0  0  0  0  0  0  0  0  0  0
   -1.2972   -0.5988   -0.5288 N   0  0  0  0  0  0  0  0  0  0  0  0
    2.1179   -1.0174    0.1280 N   0  0  0  0  0  0  0  0  0  0  0  0
    1.7675    1.3768    0.0200 N   0  0  0  0  0  0  0  0  0  0  0  0
    0.0715   -2.3345   -0.2388 N   0  0  0  0  0  0  0  0  0  0  0  0
   -0.0574   -0.0739   -0.3013 C   0  0  0  0  0  0  0  0  0  0  0  0
   -2.5243    0.1200   -0.7753 C   0  0  0  0  0  0  0  0  0  0  0  0
    0.7606   -1.1568   -0.1275 C   0  0  0  0  0  0  0  0  0  0  0  0
   -3.2920    0.4378    0.5110 C   0  0  0  0  0  0  0  0  0  0  0  0
    0.3748    1.2848   -0.2429 C   0  0  0  0  0  0  0  0  0  0  0  0
   -1.1686   -1.9631   -0.4812 C   0  0  0  0  0  0  0  0  0  0  0  0
    2.6828    0.2797    0.2134 C   0  0  0  0  0  0  0  0  0  0  0  0
   -4.5827    1.1836    0.2020 C   0  0  0  0  0  0  0  0  0  0  0  0
    2.9561   -2.1964    0.3069 C   0  0  0  0  0  0  0  0  0  0  0  0
    2.3302    2.7207    0.1029 C   0  0  0  0  0  0  0  0  0  0  0  0
  1 11  1  0
  2 12  2  0
  3 14  2  0
  4  8  1  0
  4  9  1  0
  4 13  1  0
  5 10  1  0
  5 14  1  0
  5 16  1  0
  6 12  1  0
  6 14  1  0
  6 17  1  0
  7 10  1  0
  7 13  2  0
  8 10  2  0
  8 12  1  0
  9 11  1  0
 11 15  1  0
M  END
>  <PUBCHEM_COMPOUND_CID>  (1) 
4977

>  <PUBCHEM_CONFORMER_RMSD>  (1) 
0.6

>  <PUBCHEM_CONFORMER_DIVERSEORDER>  (1) 
1
2
7
4
3
5
6

>  <PUBCHEM_MMFF94_PARTIAL_CHARGES>  (1) 
18
1 -0.68
10 0.29
11 0.28
12 0.71
13 0.04
14 0.69
16 0.3
17 0.3
2 -0.57
21 0.15
3 -0.57
31 0.4
4 0.05
5 -0.42
6 -0.42
7 -0.57
8 -0.24
9 0.26

>  <PUBCHEM_EFFECTIVE_ROTOR_COUNT>  (1) 
2

>  <PUBCHEM_PHARMACOPHORE_FEATURES>  (1) 
7
1 1 acceptor
1 1 donor
1 2 acceptor
1 3 acceptor
3 4 7 13 cation
5 4 7 8 10 13 rings
6 5 6 8 10 12 14 rings

>  <PUBCHEM_HEAVY_ATOM_COUNT>  (1) 
17

>  <PUBCHEM_ATOM_DEF_STEREO_COUNT>  (1) 
0

>  <PUBCHEM_ATOM_UDEF_STEREO_COUNT>  (1) 
1

>  <PUBCHEM_BOND_DEF_STEREO_COUNT>  (1) 
0

>  <PUBCHEM_BOND_UDEF_STEREO_COUNT>  (1) 
0

>  <PUBCHEM_ISOTOPIC_ATOM_COUNT>  (1) 
0

>  <PUBCHEM_COMPONENT_COUNT>  (1) 
1

>  <PUBCHEM_CACTVS_TAUTO_COUNT>  (1) 
1

>  <PUBCHEM_CONFORMER_ID>  (1) 
0000137100000001

>  <PUBCHEM_MMFF94_ENERGY>  (1) 
25.686

>  <PUBCHEM_FEATURE_SELFOVERLAP>  (1) 
35.635

>  <PUBCHEM_SHAPE_FINGERPRINT>  (1) 
10219947 1 18339643347898994175
10411042 1 17547290000111532775
10967382 1 18411131416383140076
10980938 120 18409730694108548550
11132069 177 18271796926234228098
11471102 20 18338510846606195389
11471102 22 18334588948764683459
12251169 10 18411698807047915283
12382932 28 18340198704281495626
12390115 104 17764603400995619072
13140716 1 18193549185154170960
13172582 1 18411978044420654175
13380535 21 18264495159713833742
14178342 30 17979621652765097960
14790565 3 18337402629339147644
15442244 35 18412822477925052351
16945 1 18337941364139353116
17844478 74 17821726122175721733
18186145 218 18272652337611562703
21029758 27 18262522468682246926
21501502 16 18194958780182323270
21524375 3 18201719595893591911
22094290 62 18412824694201737729
22182313 1 18194106427159229492
23184049 59 18411419484023847725
2334 1 17833260197020267700
23463225 33 18409728452130332373
23557571 272 14045739353105676249
2748010 2 18050833443420441956
7832392 63 18342171210898702430

>  <PUBCHEM_SHAPE_MULTIPOLES>  (1) 
312.32
6.45
2.66
0.77
4.31
0.32
-0.04
1.25
-1.7
-1.68
0.1
0.4
-0.07
-0.06

>  <PUBCHEM_SHAPE_SELFOVERLAP>  (1) 
659.982

>  <PUBCHEM_SHAPE_VOLUME>  (1) 
177

>  <PUBCHEM_COORDINATE_TYPE>  (1) 
2
5
10

$$$$
