49777
     RDKit          3D

 26 29  0  0  0  0  0  0  0  0999 V2000
    1.3750   -0.9509    1.7293 O   0  0  0  0  0  0  0  0  0  0  0  0
   -0.3330   -0.3332   -0.3710 N   0  0  0  0  0  0  0  0  0  0  0  0
    0.1488    2.0484   -0.1660 N   0  0  0  0  0  0  0  0  0  0  0  0
   -3.7006   -0.6489   -0.0624 N   0  0  0  0  0  0  0  0  0  0  0  0
   -2.0013    1.0425   -0.0552 N   0  0  0  0  0  0  0  0  0  0  0  0
   -1.4010   -1.1450   -0.3500 N   0  0  0  0  0  0  0  0  0  0  0  0
    0.9537   -0.7142   -0.5431 N   0  0  0  0  0  0  0  0  0  0  0  0
    5.7899   -2.0318   -0.2695 N   0  0  0  0  0  0  0  0  0  0  0  0
   -0.6983    0.9652   -0.1953 C   0  0  0  0  0  0  0  0  0  0  0  0
   -2.3748   -0.2612   -0.1573 C   0  0  0  0  0  0  0  0  0  0  0  0
   -0.1834    3.1199    0.5748 C   0  0  0  0  0  0  0  0  0  0  0  0
    1.2872    2.0092   -0.8801 C   0  0  0  0  0  0  0  0  0  0  0  0
   -4.6356    0.2903    0.1354 C   0  0  0  0  0  0  0  0  0  0  0  0
   -4.0023   -1.9501   -0.1701 C   0  0  0  0  0  0  0  0  0  0  0  0
    1.7534   -0.9972    0.5614 C   0  0  0  0  0  0  0  0  0  0  0  0
    0.6511    4.2274    0.6223 C   0  0  0  0  0  0  0  0  0  0  0  0
    2.1596    3.0882   -0.8708 C   0  0  0  0  0  0  0  0  0  0  0  0
    3.1652   -1.3581    0.2704 C   0  0  0  0  0  0  0  0  0  0  0  0
    1.8343    4.2070   -0.1100 C   0  0  0  0  0  0  0  0  0  0  0  0
   -5.9720   -0.0691    0.2358 C   0  0  0  0  0  0  0  0  0  0  0  0
   -5.3223   -2.3676   -0.0769 C   0  0  0  0  0  0  0  0  0  0  0  0
   -6.3145   -1.4135    0.1280 C   0  0  0  0  0  0  0  0  0  0  0  0
    4.1256   -1.1097    1.2220 C   0  0  0  0  0  0  0  0  0  0  0  0
    3.4697   -1.9312   -0.9414 C   0  0  0  0  0  0  0  0  0  0  0  0
    5.4261   -1.4658    0.9030 C   0  0  0  0  0  0  0  0  0  0  0  0
    4.7996   -2.2503   -1.1635 C   0  0  0  0  0  0  0  0  0  0  0  0
  1 15  2  0
  2  6  1  0
  2  7  1  0
  2  9  1  0
  3  9  1  0
  3 11  2  0
  3 12  1  0
  4 10  1  0
  4 13  2  0
  4 14  1  0
  5  9  2  0
  5 10  1  0
  6 10  2  0
  7 15  1  0
  8 25  2  0
  8 26  1  0
 11 16  1  0
 12 17  2  0
 13 20  1  0
 14 21  2  0
 15 18  1  0
 16 19  2  0
 17 19  1  0
 18 23  2  0
 18 24  1  0
 20 22  2  0
 21 22  1  0
 23 25  1  0
 24 26  2  0
M  CHG  2   3   1   4   1
M  END
>  <PUBCHEM_COMPOUND_CID>  (1) 
49777

>  <PUBCHEM_CONFORMER_RMSD>  (1) 
0.8

>  <PUBCHEM_CONFORMER_DIVERSEORDER>  (1) 
2
14
13
18
17
4
20
6
5
7
19
16
12
11
15
9
8
10
1
3

>  <PUBCHEM_MMFF94_PARTIAL_CHARGES>  (1) 
41
1 -0.57
10 0.82
11 0.21
12 0.21
13 0.21
14 0.21
15 0.54
16 -0.15
17 -0.15
18 0.09
19 -0.15
2 0.71
20 -0.15
21 -0.15
22 -0.15
23 -0.15
24 -0.15
25 0.16
26 0.16
27 0.37
28 0.15
29 0.15
3 -0.03
30 0.15
31 0.15
32 0.15
33 0.15
34 0.15
35 0.15
36 0.15
37 0.15
38 0.15
39 0.15
4 -0.03
40 0.15
41 0.15
5 -0.57
6 -0.71
7 -0.57
8 -0.62
9 0.49

>  <PUBCHEM_EFFECTIVE_ROTOR_COUNT>  (1) 
5

>  <PUBCHEM_PHARMACOPHORE_FEATURES>  (1) 
9
1 1 acceptor
1 7 donor
1 8 acceptor
4 2 3 5 9 cation
4 4 5 6 10 cation
5 2 5 6 9 10 rings
6 3 11 12 16 17 19 rings
6 4 13 14 20 21 22 rings
6 8 18 23 24 25 26 rings

>  <PUBCHEM_HEAVY_ATOM_COUNT>  (1) 
26

>  <PUBCHEM_ATOM_DEF_STEREO_COUNT>  (1) 
0

>  <PUBCHEM_ATOM_UDEF_STEREO_COUNT>  (1) 
0

>  <PUBCHEM_BOND_DEF_STEREO_COUNT>  (1) 
0

>  <PUBCHEM_BOND_UDEF_STEREO_COUNT>  (1) 
0

>  <PUBCHEM_ISOTOPIC_ATOM_COUNT>  (1) 
0

>  <PUBCHEM_COMPONENT_COUNT>  (1) 
1

>  <PUBCHEM_CACTVS_TAUTO_COUNT>  (1) 
2

>  <PUBCHEM_CONFORMER_ID>  (1) 
0000C27100000002

>  <PUBCHEM_MMFF94_ENERGY>  (1) 
84.4853

>  <PUBCHEM_FEATURE_SELFOVERLAP>  (1) 
45.836

>  <PUBCHEM_SHAPE_FINGERPRINT>  (1) 
10050765 1 18266178521513442895
10369192 42 17274237553911527816
10411042 1 18411139104306086622
1100329 8 18336826497772034971
11045515 52 18187645739409908076
11265709 11 18410294670627933252
11963148 33 17543908362059261075
12107183 9 18269565962087942897
12166972 35 18202565099018868563
12236239 1 17531530875832937454
12342043 65 17630610012528696102
12516196 113 18410855447312318914
12553582 1 18336813213359060507
12788726 201 18044374928818856818
13009979 54 18060150820797215273
13533116 47 18265895951145933587
13590594 115 18335991874252743217
13785724 45 18342184344951112516
13955234 65 18195529422548902497
140371 6 18270691857261584607
14739800 52 17416683755533777569
14787075 74 18113622279021983122
14955137 171 18413670209974591111
15042514 8 18122624946563902892
15664445 248 18412272718222587078
15775530 1 17608390247423211954
15927050 60 17836367425612650916
17492 89 18195245757719781711
17980427 26 17697303376163973701
1813 80 18341900662339924334
18222031 100 18411420592020311322
18393751 57 18197755861482843786
18681886 176 18413102883486957803
19026451 147 18334862719145019518
1979834 28 18200864193211804592
20567600 70 18335701675922842298
21033648 29 17488443218759027011
21049683 271 18187936126417416948
21304253 13 18343018857133759177
21304303 172 18128541470632061409
21344244 78 18272925055250482889
21781055 127 16772140036879998635
22849341 161 18341065046646147129
2297311 6 18340774719815991086
23366157 5 18115588308596470605
23557571 272 18269275647641080502
23559900 14 18411974793784577971
249057 3 18410291377395481981
249999 5 18195244653068765361
3004659 81 18186526492523516566
314173 85 18341332197590641499
335352 9 18410010997645845269
3411729 13 18191301791697668096
3421961 26 18339922713793736848
469060 322 18266184928981910336
5104073 3 18266470970189513947
5385378 56 18195531625878142409
59755656 215 18192436491813217509
621550 34 18059283272248684998
621550 5 17917146088173433088
67856867 119 18268989963691228577
7399639 24 18129647605589914106
8863177 126 17751376169097806363
9841814 1 18187632639569407139
9962374 69 18268987752095119703

>  <PUBCHEM_SHAPE_MULTIPOLES>  (1) 
494.33
12.86
4.58
1.01
10.7
6.49
-0.13
-13.85
-0.55
-4.12
0.16
-1.1
-0.18
-0.21

>  <PUBCHEM_SHAPE_SELFOVERLAP>  (1) 
1100.804

>  <PUBCHEM_SHAPE_VOLUME>  (1) 
261.2

>  <PUBCHEM_COORDINATE_TYPE>  (1) 
2
5
10

$$$$
