49795
     RDKit          3D

 20 21  0  0  1  0  0  0  0  0999 V2000
    0.8137   -1.2651   -0.8828 O   0  0  0  0  0  0  0  0  0  0  0  0
   -0.0601   -0.9957    1.2387 O   0  0  0  0  0  0  0  0  0  0  0  0
    4.0063    0.1906    0.2526 N   0  0  0  0  0  0  0  0  0  0  0  0
   -1.5121   -1.1236   -0.6775 C   0  0  0  0  0  0  0  0  0  0  0  0
   -2.2553    0.1746   -0.4558 C   0  0  0  0  0  0  0  0  0  0  0  0
   -3.4480    0.2162    0.2899 C   0  0  0  0  0  0  0  0  0  0  0  0
   -4.0481   -1.0305    0.8932 C   0  0  0  0  0  0  0  0  0  0  0  0
    2.6640    0.1505   -0.3083 C   0  0  0  0  0  0  0  0  0  0  0  0
   -2.2191   -2.3496   -0.1807 C   0  0  0  0  0  0  0  0  0  0  0  0
    2.1385   -1.2757   -0.3416 C   0  0  0  0  0  0  0  0  0  0  0  0
   -0.1900   -1.1172    0.0282 C   0  0  0  0  0  0  0  0  0  0  0  0
   -3.3538   -2.3055    0.5286 C   0  0  0  0  0  0  0  0  0  0  0  0
    4.4972    1.5689    0.3240 C   0  0  0  0  0  0  0  0  0  0  0  0
    4.9238   -0.6322   -0.5394 C   0  0  0  0  0  0  0  0  0  0  0  0
   -1.7472    1.3642   -1.0037 C   0  0  0  0  0  0  0  0  0  0  0  0
   -4.0987    1.4445    0.4846 C   0  0  0  0  0  0  0  0  0  0  0  0
   -2.4056    2.5776   -0.8065 C   0  0  0  0  0  0  0  0  0  0  0  0
   -3.5798    2.6180   -0.0610 C   0  0  0  0  0  0  0  0  0  0  0  0
    3.5616    2.4433    1.1414 C   0  0  0  0  0  0  0  0  0  0  0  0
    6.3126   -0.6534    0.0761 C   0  0  0  0  0  0  0  0  0  0  0  0
  1 10  1  0
  1 11  1  0
  2 11  2  0
  3  8  1  0
  3 13  1  0
  3 14  1  0
  4  5  1  0
  4  9  1  0
  4 11  1  0
  5  6  2  0
  5 15  1  0
  6  7  1  0
  6 16  1  0
  7 12  1  0
  8 10  1  0
  9 12  2  0
 13 19  1  0
 14 20  1  0
 15 17  2  0
 16 18  2  0
 17 18  1  0
M  END
>  <PUBCHEM_COMPOUND_CID>  (1) 
49795

>  <PUBCHEM_CONFORMER_RMSD>  (1) 
0.8

>  <PUBCHEM_CONFORMER_DIVERSEORDER>  (1) 
4
116
193
163
244
54
114
249
247
118
262
108
192
140
131
32
161
146
256
19
80
191
91
138
231
11
22
162
221
123
182
15
233
125
224
209
40
202
34
6
115
188
220
171
72
88
242
78
257
216
45
75
145
29
48
107
180
144
170
2
93
86
76
204
28
110
263
74
261
31
94
168
73
84
127
175
133
23
225
238
1
14
18
196
158
104
70
152
33
143
142
227
194
179
68
250
98
60
268
230
16
205
264
178
251
132
55
253
43
248
27
160
153
106
100
92
200
50
57
37
24
112
101
222
240
167
190
130
111
155
79
77
239
71
113
119
96
97
20
56
36
102
44
9
81
5
201
63
64
41
52
195
122
51
82
66
234
42
214
109
245
13
17
232
105
184
236
8
61
246
87
159
126
90
203
229
141
59
181
211
213
173
89
228
10
83
156
46
129
95
67
241
164
265
3
69
120
53
183
210
169
149
199
139
165
49
25
258
148
128
176
12
166
35
154
38
39
151
85
208
157
135
147
99
223
47
7
237
134
103
65
235
174
121
117
267
62
21
187
172
260
150
189
197
137
207
218
212
26
58
186
198
243
219
136
255
266
269
226
259
124
217
30
185
177
252
254
206
215

>  <PUBCHEM_MMFF94_PARTIAL_CHARGES>  (1) 
24
1 -0.43
10 0.28
11 0.66
12 -0.29
13 0.27
14 0.27
15 -0.15
16 -0.15
17 -0.15
18 -0.15
2 -0.57
26 0.15
29 0.15
3 -0.81
34 0.15
35 0.15
36 0.15
37 0.15
4 0.34
5 -0.14
6 -0.14
7 0.28
8 0.27
9 -0.29

>  <PUBCHEM_EFFECTIVE_ROTOR_COUNT>  (1) 
7.4

>  <PUBCHEM_PHARMACOPHORE_FEATURES>  (1) 
4
1 2 acceptor
1 3 cation
6 4 5 6 7 9 12 rings
6 5 6 15 16 17 18 rings

>  <PUBCHEM_HEAVY_ATOM_COUNT>  (1) 
20

>  <PUBCHEM_ATOM_DEF_STEREO_COUNT>  (1) 
0

>  <PUBCHEM_ATOM_UDEF_STEREO_COUNT>  (1) 
1

>  <PUBCHEM_BOND_DEF_STEREO_COUNT>  (1) 
0

>  <PUBCHEM_BOND_UDEF_STEREO_COUNT>  (1) 
0

>  <PUBCHEM_ISOTOPIC_ATOM_COUNT>  (1) 
0

>  <PUBCHEM_COMPONENT_COUNT>  (1) 
1

>  <PUBCHEM_CACTVS_TAUTO_COUNT>  (1) 
1

>  <PUBCHEM_CONFORMER_ID>  (1) 
0000C28300000004

>  <PUBCHEM_MMFF94_ENERGY>  (1) 
33.4231

>  <PUBCHEM_FEATURE_SELFOVERLAP>  (1) 
20.317

>  <PUBCHEM_SHAPE_FINGERPRINT>  (1) 
10319926 262 18409437086614332714
10646746 165 18410854361228450868
10670039 82 18262529224935368764
11405975 8 18411132537681022698
11595378 159 17749658658281972056
12107183 9 17755853126852739202
12173636 292 18337110060513827687
12390115 104 18198358255740761921
12403259 415 18202001062565243600
12403814 3 18271243940832111735
12507557 5 18202563982295540962
12596602 18 16516248564916318984
12670546 56 18334004021479874306
14251751 93 18408315592747907960
14251757 17 18272931613813314784
14420673 8 18190743029849303626
14466204 15 18338790131798379762
15196674 1 18411699919956440124
17844677 252 18410581716736162162
19433438 28 18410293640194400634
20645477 56 18410860923485045423
21033648 29 18059281137507072920
21065198 57 18411982472991008710
21315764 268 18340763831783719200
21652331 79 18338515356121499856
22182937 141 18341615884596945929
23227448 37 18341610438520223541
23402539 116 18336825398566407895
23557571 272 18412273838723468766
23559900 14 18128538167987015438
27216 239 18410293605924215969
4214541 1 18411138026427492278
5104073 3 18409724084850232488
5281201 14 18201726171657249262
7097593 13 17608350372889054003
9925002 15 17408804766693499063
9995097 60 18272090457738475022

>  <PUBCHEM_SHAPE_MULTIPOLES>  (1) 
394.87
11.63
2.93
0.99
16.57
1.13
0.06
1.82
1.59
-2.36
0.12
-0.12
0.14
1.36

>  <PUBCHEM_SHAPE_SELFOVERLAP>  (1) 
815.387

>  <PUBCHEM_SHAPE_VOLUME>  (1) 
225.8

>  <PUBCHEM_COORDINATE_TYPE>  (1) 
2
5
10

$$$$
