49807
     RDKit          3D

 22 22  0  0  0  0  0  0  0  0999 V2000
    0.5961   -2.9018    0.7822 I   0  0  0  0  0  0  0  0  0  0  0  0
    1.3617    3.1341    0.2992 I   0  0  0  0  0  0  0  0  0  0  0  0
   -4.2180    0.7138   -0.2375 I   0  0  0  0  0  0  0  0  0  0  0  0
    2.8259   -0.3055   -1.4823 O   0  0  0  0  0  0  0  0  0  0  0  0
   -2.9895   -2.3655    1.3194 O   0  0  0  0  0  0  0  0  0  0  0  0
   -1.8722    3.2721   -1.4375 O   0  0  0  0  0  0  0  0  0  0  0  0
   -2.2540    3.6669    0.7682 O   0  0  0  0  0  0  0  0  0  0  0  0
    1.9939   -0.0016    0.6920 N   0  0  0  0  0  0  0  0  0  0  0  0
   -2.6954   -2.5778   -0.9708 N   0  0  0  0  0  0  0  0  0  0  0  0
    0.6036    0.1587    0.4816 C   0  0  0  0  0  0  0  0  0  0  0  0
    4.3500   -0.3271    0.3861 C   0  0  0  0  0  0  0  0  0  0  0  0
   -1.5918   -0.8005    0.2726 C   0  0  0  0  0  0  0  0  0  0  0  0
    5.4915   -0.5530   -0.6027 C   0  0  0  0  0  0  0  0  0  0  0  0
   -0.2211   -0.9584    0.4769 C   0  0  0  0  0  0  0  0  0  0  0  0
    0.0826    1.4308    0.2857 C   0  0  0  0  0  0  0  0  0  0  0  0
   -1.2882    1.5885    0.0813 C   0  0  0  0  0  0  0  0  0  0  0  0
    2.9797   -0.2055   -0.2696 C   0  0  0  0  0  0  0  0  0  0  0  0
   -2.1254    0.4729    0.0748 C   0  0  0  0  0  0  0  0  0  0  0  0
    6.8448   -0.6691    0.0845 C   0  0  0  0  0  0  0  0  0  0  0  0
   -2.4706   -1.9713    0.2656 C   0  0  0  0  0  0  0  0  0  0  0  0
   -1.8478    2.9253   -0.1251 C   0  0  0  0  0  0  0  0  0  0  0  0
   -3.5559   -3.7259   -1.1445 C   0  0  0  0  0  0  0  0  0  0  0  0
  1 14  1  0
  2 15  1  0
  3 18  1  0
  4 17  2  0
  5 20  2  0
  6 21  1  0
  7 21  2  0
  8 10  1  0
  8 17  1  0
  9 20  1  0
  9 22  1  0
 10 14  2  0
 10 15  1  0
 11 13  1  0
 11 17  1  0
 12 14  1  0
 12 18  2  0
 12 20  1  0
 13 19  1  0
 15 16  2  0
 16 18  1  0
 16 21  1  0
M  END
>  <PUBCHEM_COMPOUND_CID>  (1) 
49807

>  <PUBCHEM_CONFORMER_RMSD>  (1) 
0.8

>  <PUBCHEM_CONFORMER_DIVERSEORDER>  (1) 
1
6
2
4
7
3
9
8
5

>  <PUBCHEM_MMFF94_PARTIAL_CHARGES>  (1) 
23
1 -0.08
10 0.12
11 0.06
12 0.09
14 0.08
15 0.08
16 0.09
17 0.57
18 0.08
2 -0.08
20 0.54
21 0.63
22 0.3
27 0.37
3 -0.08
31 0.37
35 0.5
4 -0.57
5 -0.57
6 -0.65
7 -0.57
8 -0.55
9 -0.73

>  <PUBCHEM_EFFECTIVE_ROTOR_COUNT>  (1) 
7

>  <PUBCHEM_PHARMACOPHORE_FEATURES>  (1) 
12
1 1 hydrophobe
1 19 hydrophobe
1 2 hydrophobe
1 3 hydrophobe
1 4 acceptor
1 5 acceptor
1 6 acceptor
1 7 acceptor
1 8 donor
1 9 donor
3 6 7 21 anion
6 10 12 14 15 16 18 rings

>  <PUBCHEM_HEAVY_ATOM_COUNT>  (1) 
22

>  <PUBCHEM_ATOM_DEF_STEREO_COUNT>  (1) 
0

>  <PUBCHEM_ATOM_UDEF_STEREO_COUNT>  (1) 
0

>  <PUBCHEM_BOND_DEF_STEREO_COUNT>  (1) 
0

>  <PUBCHEM_BOND_UDEF_STEREO_COUNT>  (1) 
0

>  <PUBCHEM_ISOTOPIC_ATOM_COUNT>  (1) 
0

>  <PUBCHEM_COMPONENT_COUNT>  (1) 
1

>  <PUBCHEM_CACTVS_TAUTO_COUNT>  (1) 
4

>  <PUBCHEM_CONFORMER_ID>  (1) 
0000C28F00000001

>  <PUBCHEM_MMFF94_ENERGY>  (1) 
89.33

>  <PUBCHEM_FEATURE_SELFOVERLAP>  (1) 
60.954

>  <PUBCHEM_SHAPE_FINGERPRINT>  (1) 
10411042 1 18267303329581019395
10493431 412 18052548677023017809
10967382 1 18337386029178966833
1100329 8 18410294731079475929
11578080 2 17416390168722509153
12236239 1 17530967952149784890
12293681 160 17626935383937902552
12390115 104 18055646009683644673
12403259 226 18269832172281137960
12553582 1 18336815451337182675
12788726 201 18335693910685132139
13140716 1 18337678628157956089
14508225 48 18337943614433379565
14790565 3 18338528426066632777
15042514 8 18409454708522418867
16087824 20 18410853223848386797
16945 1 18337382765024972857
17492 89 17765148758926558775
17539 30 18411693296789562549
1813 80 18125741216247658031
18927931 339 18411427206739523734
19141452 34 18059584619574935083
19591789 44 18051133597199425283
20739085 24 18046934815748728233
21426921 1 18411982447099593218
22182313 1 18119515790138014921
2334 1 18120652702346240457
23402539 116 18410853283218449126
23419403 2 17488445546214401233
23557571 272 18201160945397904884
23559900 14 18341043099606149904
23566358 2 18123750855219085415
2748010 2 18192704768761264889
283562 15 18408882957996456890
335352 9 18410573977105173557
34934 24 18337952298931416603
58779409 54 18410568470498027628
59755656 215 18338520712473667686
59755656 520 17700148603329670912
70251023 43 18267298914259609410
81228 2 18408602565530664441
9709674 26 18200037214365066646

>  <PUBCHEM_SHAPE_MULTIPOLES>  (1) 
455.12
9.43
4.69
1.07
16.67
0.97
-0.15
-3.89
-1.9
-4.97
-0.2
-0.25
-0.28
-0.26

>  <PUBCHEM_SHAPE_SELFOVERLAP>  (1) 
878.367

>  <PUBCHEM_SHAPE_VOLUME>  (1) 
285.5

>  <PUBCHEM_COORDINATE_TYPE>  (1) 
2
5
10

$$$$
