49813
     RDKit          3D

 22 24  0  0  0  0  0  0  0  0999 V2000
    0.6280   -0.1795    1.9750 O   0  0  0  0  0  0  0  0  0  0  0  0
    2.7146   -0.3500    0.1886 N   0  0  0  0  0  0  0  0  0  0  0  0
   -1.9912   -1.0876    0.2944 C   0  0  0  0  0  0  0  0  0  0  0  0
   -1.4235    1.1610   -0.1414 C   0  0  0  0  0  0  0  0  0  0  0  0
   -3.2950   -0.8513   -0.1853 C   0  0  0  0  0  0  0  0  0  0  0  0
   -2.7273    1.3972   -0.6210 C   0  0  0  0  0  0  0  0  0  0  0  0
   -1.0300   -0.0884    0.3131 C   0  0  0  0  0  0  0  0  0  0  0  0
   -1.8265   -2.5217    0.6918 C   0  0  0  0  0  0  0  0  0  0  0  0
   -0.5848    2.3954   -0.2617 C   0  0  0  0  0  0  0  0  0  0  0  0
   -4.1070   -2.1086   -0.1483 C   0  0  0  0  0  0  0  0  0  0  0  0
   -2.8655    2.8087   -1.1016 C   0  0  0  0  0  0  0  0  0  0  0  0
   -3.2904   -2.9641    0.8315 C   0  0  0  0  0  0  0  0  0  0  0  0
   -1.6639    3.4769   -0.4178 C   0  0  0  0  0  0  0  0  0  0  0  0
   -3.6814    0.3920   -0.6619 C   0  0  0  0  0  0  0  0  0  0  0  0
    0.3252   -0.3412    0.7742 C   0  0  0  0  0  0  0  0  0  0  0  0
    1.3941   -0.8120   -0.2250 C   0  0  0  0  0  0  0  0  0  0  0  0
    2.7520    1.1118    0.2520 C   0  0  0  0  0  0  0  0  0  0  0  0
    3.7434   -0.8455   -0.7272 C   0  0  0  0  0  0  0  0  0  0  0  0
    4.1256    1.5871    0.7188 C   0  0  0  0  0  0  0  0  0  0  0  0
    3.7715   -2.3718   -0.7168 C   0  0  0  0  0  0  0  0  0  0  0  0
    4.1840    3.1038    0.8139 C   0  0  0  0  0  0  0  0  0  0  0  0
    4.8480   -2.9122   -1.6454 C   0  0  0  0  0  0  0  0  0  0  0  0
  1 15  2  0
  2 16  1  0
  2 17  1  0
  2 18  1  0
  3  5  1  0
  3  7  2  0
  3  8  1  0
  4  6  2  0
  4  7  1  0
  4  9  1  0
  5 10  1  0
  5 14  2  0
  6 11  1  0
  6 14  1  0
  7 15  1  0
  8 12  1  0
  9 13  1  0
 10 12  1  0
 11 13  1  0
 15 16  1  0
 17 19  1  0
 18 20  1  0
 19 21  1  0
 20 22  1  0
M  END
>  <PUBCHEM_COMPOUND_CID>  (1) 
49813

>  <PUBCHEM_CONFORMER_RMSD>  (1) 
0.8

>  <PUBCHEM_CONFORMER_DIVERSEORDER>  (1) 
1
56
92
39
12
52
105
7
99
60
49
41
94
68
47
72
84
96
104
78
93
88
81
54
3
95
102
82
53
43
97
48
74
65
57
55
45
8
98
44
91
108
86
90
25
106
4
73
83
32
103
40
33
51
101
58
13
35
70
85
26
46
80
64
34
71
31
69
100
42
36
19
89
21
6
27
107
61
87
63
20
50
75
22
76
62
5
59
28
79
67
2
17
37
14
77
66
30
18
23
11
16
9
38
24
29
10
15

>  <PUBCHEM_MMFF94_PARTIAL_CHARGES>  (1) 
17
1 -0.57
10 0.14
11 0.14
14 -0.15
15 0.42
16 0.33
17 0.27
18 0.27
2 -0.81
3 -0.14
35 0.15
4 -0.14
5 -0.14
6 -0.14
7 0.09
8 0.14
9 0.14

>  <PUBCHEM_EFFECTIVE_ROTOR_COUNT>  (1) 
8.2

>  <PUBCHEM_PHARMACOPHORE_FEATURES>  (1) 
7
1 1 acceptor
1 2 cation
1 21 hydrophobe
1 22 hydrophobe
5 3 5 8 10 12 rings
5 4 6 9 11 13 rings
6 3 4 5 6 7 14 rings

>  <PUBCHEM_HEAVY_ATOM_COUNT>  (1) 
22

>  <PUBCHEM_ATOM_DEF_STEREO_COUNT>  (1) 
0

>  <PUBCHEM_ATOM_UDEF_STEREO_COUNT>  (1) 
0

>  <PUBCHEM_BOND_DEF_STEREO_COUNT>  (1) 
0

>  <PUBCHEM_BOND_UDEF_STEREO_COUNT>  (1) 
0

>  <PUBCHEM_ISOTOPIC_ATOM_COUNT>  (1) 
0

>  <PUBCHEM_COMPONENT_COUNT>  (1) 
1

>  <PUBCHEM_CACTVS_TAUTO_COUNT>  (1) 
2

>  <PUBCHEM_CONFORMER_ID>  (1) 
0000C29500000001

>  <PUBCHEM_MMFF94_ENERGY>  (1) 
55.4382

>  <PUBCHEM_FEATURE_SELFOVERLAP>  (1) 
35.695

>  <PUBCHEM_SHAPE_FINGERPRINT>  (1) 
10319926 262 18264463197258476680
10498660 4 18261098682522953149
10730089 88 18340211769440479263
107951 10 17977953376088482039
11405975 8 18342178821638741002
12173636 292 18189886531464993957
12623949 98 17844266204908596175
12916754 54 18271813401639332106
14251740 79 18053951653616868819
14787075 74 17607520538015216152
14790565 3 18265046930564657733
15475509 8 18411419510711900399
15961568 22 17970626514185511828
16945 1 18190440720059339601
17492 89 18409163316445408418
20510252 161 18409724063175162849
20693207 138 18341342114960142326
21524375 3 17536311432162753561
21618674 68 18338796839946718372
221490 88 18341899576177454574
22393880 68 18337113346275085446
2260408 40 17694820644991731707
22943178 12 18413103957523472546
23557571 272 18334573589898439648
23559900 14 18341324492851634242
2748010 2 18046324591438360869
44062 13 18195535792033440382
5104073 3 18410291432201305626
57527585 103 17315096542910853825
59554788 281 17096074905105745802
621550 34 18198903806723333208
6913067 236 18055617663189004650
7364860 26 17615689974524788425
7399639 24 18198338657878635512
81228 2 18187091671464497209
9709674 26 18412259515339651044

>  <PUBCHEM_SHAPE_MULTIPOLES>  (1) 
441.9
9.13
4.32
1.17
7.72
1.09
0.06
-3.17
-1.84
0.3
-0.58
0.64
-0.25
3.41

>  <PUBCHEM_SHAPE_SELFOVERLAP>  (1) 
928.658

>  <PUBCHEM_SHAPE_VOLUME>  (1) 
255.2

>  <PUBCHEM_COORDINATE_TYPE>  (1) 
2
5
10

$$$$
