49825
     RDKit          3D

 21 24  0  0  0  0  0  0  0  0999 V2000
   -5.3203   -0.4345   -0.3105 O   0  0  0  0  0  0  0  0  0  0  0  0
   -0.7456    0.7761    1.7941 O   0  0  0  0  0  0  0  0  0  0  0  0
   -2.7668    0.8007   -0.0756 N   0  0  0  0  0  0  0  0  0  0  0  0
    1.1870   -1.1687    0.0716 C   0  0  0  0  0  0  0  0  0  0  0  0
    1.9910    1.0498    0.0780 C   0  0  0  0  0  0  0  0  0  0  0  0
    2.4661   -1.6313   -0.2971 C   0  0  0  0  0  0  0  0  0  0  0  0
    3.2702    0.5873   -0.2906 C   0  0  0  0  0  0  0  0  0  0  0  0
    0.9252    0.1806    0.2536 C   0  0  0  0  0  0  0  0  0  0  0  0
    0.2195   -2.3078    0.1626 C   0  0  0  0  0  0  0  0  0  0  0  0
    1.9780    2.5437    0.1771 C   0  0  0  0  0  0  0  0  0  0  0  0
    2.4569   -3.1169   -0.4833 C   0  0  0  0  0  0  0  0  0  0  0  0
    4.2154    1.7346   -0.4689 C   0  0  0  0  0  0  0  0  0  0  0  0
    1.1753   -3.5051    0.2684 C   0  0  0  0  0  0  0  0  0  0  0  0
    3.4788    2.8499    0.2878 C   0  0  0  0  0  0  0  0  0  0  0  0
    3.5261   -0.7598   -0.4959 C   0  0  0  0  0  0  0  0  0  0  0  0
   -0.4028    0.6609    0.5986 C   0  0  0  0  0  0  0  0  0  0  0  0
   -1.3929    1.0303   -0.5176 C   0  0  0  0  0  0  0  0  0  0  0  0
   -2.9727   -0.6112    0.2762 C   0  0  0  0  0  0  0  0  0  0  0  0
   -3.7237    1.2052   -1.1149 C   0  0  0  0  0  0  0  0  0  0  0  0
   -4.4158   -0.8290    0.7219 C   0  0  0  0  0  0  0  0  0  0  0  0
   -5.1489    0.9454   -0.6355 C   0  0  0  0  0  0  0  0  0  0  0  0
  1 20  1  0
  1 21  1  0
  2 16  2  0
  3 17  1  0
  3 18  1  0
  3 19  1  0
  4  6  2  0
  4  8  1  0
  4  9  1  0
  5  7  1  0
  5  8  2  0
  5 10  1  0
  6 11  1  0
  6 15  1  0
  7 12  1  0
  7 15  2  0
  8 16  1  0
  9 13  1  0
 10 14  1  0
 11 13  1  0
 12 14  1  0
 16 17  1  0
 18 20  1  0
 19 21  1  0
M  END
>  <PUBCHEM_COMPOUND_CID>  (1) 
49825

>  <PUBCHEM_CONFORMER_RMSD>  (1) 
0.8

>  <PUBCHEM_CONFORMER_DIVERSEORDER>  (1) 
1
6
8
5
7
9
2
3
4

>  <PUBCHEM_MMFF94_PARTIAL_CHARGES>  (1) 
20
1 -0.56
10 0.14
11 0.14
12 0.14
15 -0.15
16 0.42
17 0.33
18 0.27
19 0.27
2 -0.57
20 0.28
21 0.28
3 -0.81
34 0.15
4 -0.14
5 -0.14
6 -0.14
7 -0.14
8 0.09
9 0.14

>  <PUBCHEM_EFFECTIVE_ROTOR_COUNT>  (1) 
5.4

>  <PUBCHEM_PHARMACOPHORE_FEATURES>  (1) 
7
1 1 acceptor
1 2 acceptor
1 3 cation
5 4 6 9 11 13 rings
5 5 7 10 12 14 rings
6 1 3 18 19 20 21 rings
6 4 5 6 7 8 15 rings

>  <PUBCHEM_HEAVY_ATOM_COUNT>  (1) 
21

>  <PUBCHEM_ATOM_DEF_STEREO_COUNT>  (1) 
0

>  <PUBCHEM_ATOM_UDEF_STEREO_COUNT>  (1) 
0

>  <PUBCHEM_BOND_DEF_STEREO_COUNT>  (1) 
0

>  <PUBCHEM_BOND_UDEF_STEREO_COUNT>  (1) 
0

>  <PUBCHEM_ISOTOPIC_ATOM_COUNT>  (1) 
0

>  <PUBCHEM_COMPONENT_COUNT>  (1) 
1

>  <PUBCHEM_CACTVS_TAUTO_COUNT>  (1) 
2

>  <PUBCHEM_CONFORMER_ID>  (1) 
0000C2A100000001

>  <PUBCHEM_MMFF94_ENERGY>  (1) 
58.2497

>  <PUBCHEM_FEATURE_SELFOVERLAP>  (1) 
35.697

>  <PUBCHEM_SHAPE_FINGERPRINT>  (1) 
10411042 1 17906734700622355862
10693767 8 18059297544288068518
10967382 1 18411423929626345866
1100329 8 18411133645899129738
11370993 70 18336825402370101877
11471102 20 18412263930360322372
12107183 9 17695075392708225249
12236239 1 17489593354633583424
12553582 1 17618515285015751818
12592029 89 18409729577664971802
12730499 353 18336271205982029659
13009979 54 17343228424334077250
13034934 17 18119254106175127211
13140716 1 18339355396317472714
13533116 47 18343299237600385489
13836976 161 18335704974642121268
138480 1 18122343480378177998
13911882 115 18189630487253536459
13955234 65 18411698764172219235
14787075 74 18057323001338903951
14844126 61 16316120543554305290
15375358 24 18186801396410812419
15502722 9 18410573968061265821
15961568 22 17168147887701064884
16752209 62 16701737130157779281
16945 1 18267320737700076914
18186145 218 18343310296313134040
19591789 44 18123753320419621123
200 152 18131070402888299801
20567600 347 18040431118038662106
20645477 70 18410290277108420199
20775438 99 17541330763052949013
21054139 6 18127958901025133807
21197605 99 18122915493050574403
221490 88 18336835186411551947
22182313 1 18119271655317059442
22393880 68 18410858750168244983
2255824 54 18341612573171619558
23557571 272 17458641037845179875
23559900 14 18265888069168710995
23598288 3 17488749943901529849
23598291 2 17915474791254092544
238 59 18410302393226993106
239999 70 18272092668981903518
2748010 2 18195267704949072246
2871803 45 18411984628563139135
3060560 45 18410292523576782796
3323516 105 18408043992006291231
335352 9 18339081588416405324
33824 294 18409448089697974306
42630746 31 18342172280466826404
4280585 95 17620479008767996438
4340502 62 18270958059108016680
495365 180 18340756113548127464
5104073 3 18333733494743846081
5281201 14 18335420106657201005
543358 83 18196374723678697241
58051976 378 18413108368090953700
59755656 215 18409169913672839708
6025842 7 18411975854224580415
633830 44 17916048856577672552
6442390 28 18264770041942196798
6669772 16 18272096032827279550
7364860 26 18411135792891589054
81228 2 17329694939481771610
8272917 22 18341334405356559269
9709674 26 18335140860979617099

>  <PUBCHEM_SHAPE_MULTIPOLES>  (1) 
415.45
9.21
3.43
0.92
11.95
1.98
0.13
-3.1
-1.79
-4.07
0
0.41
-0.15
0.82

>  <PUBCHEM_SHAPE_SELFOVERLAP>  (1) 
901.895

>  <PUBCHEM_SHAPE_VOLUME>  (1) 
230.7

>  <PUBCHEM_COORDINATE_TYPE>  (1) 
2
5
10

$$$$
