49832
     RDKit          3D

 26 28  0  0  1  0  0  0  0  0999 V2000
   -3.5581    1.2686    0.2821 O   0  0  0  0  0  0  0  0  0  0  0  0
   -2.6844   -0.0224   -1.4221 O   0  0  0  0  0  0  0  0  0  0  0  0
   -2.4827    2.1369    0.0936 N   0  0  0  0  0  0  0  0  0  0  0  0
    2.8207    0.4534    0.7100 N   0  0  0  0  0  0  0  0  0  0  0  0
    3.1638   -0.2473   -0.2711 N   0  0  0  0  0  0  0  0  0  0  0  0
   -1.1557    1.7169    0.2491 C   0  0  0  0  0  0  0  0  0  0  0  0
   -0.8674    0.5129    0.9021 C   0  0  0  0  0  0  0  0  0  0  0  0
   -0.1044    2.4956   -0.2482 C   0  0  0  0  0  0  0  0  0  0  0  0
    1.4962    0.8750    0.5572 C   0  0  0  0  0  0  0  0  0  0  0  0
    0.4540    0.0934    1.0557 C   0  0  0  0  0  0  0  0  0  0  0  0
    1.2170    2.0760   -0.0949 C   0  0  0  0  0  0  0  0  0  0  0  0
    6.8522   -0.3075   -0.4633 C   0  0  0  0  0  0  0  0  0  0  0  0
   -2.8628    3.5376    0.0362 C   0  0  0  0  0  0  0  0  0  0  0  0
    4.4950   -0.6705   -0.1172 C   0  0  0  0  0  0  0  0  0  0  0  0
    5.5310    0.1129   -0.6161 C   0  0  0  0  0  0  0  0  0  0  0  0
   -4.6907   -0.6813   -0.3170 C   0  0  0  0  0  0  0  0  0  0  0  0
    7.1308   -1.5092    0.1880 C   0  0  0  0  0  0  0  0  0  0  0  0
    4.7671   -1.8701    0.5332 C   0  0  0  0  0  0  0  0  0  0  0  0
   -3.5485    0.1852   -0.5602 C   0  0  0  0  0  0  0  0  0  0  0  0
    6.0884   -2.2905    0.6863 C   0  0  0  0  0  0  0  0  0  0  0  0
    7.9672    0.5276   -0.9958 C   0  0  0  0  0  0  0  0  0  0  0  0
   -4.5921   -2.0510   -0.5625 C   0  0  0  0  0  0  0  0  0  0  0  0
   -5.8851   -0.1428    0.1614 C   0  0  0  0  0  0  0  0  0  0  0  0
   -5.6880   -2.8820   -0.3296 C   0  0  0  0  0  0  0  0  0  0  0  0
   -6.9810   -0.9738    0.3944 C   0  0  0  0  0  0  0  0  0  0  0  0
   -6.8824   -2.3434    0.1488 C   0  0  0  0  0  0  0  0  0  0  0  0
  1  3  1  0
  1 19  1  0
  2 19  2  0
  3  6  1  0
  3 13  1  0
  4  5  2  0
  4  9  1  0
  5 14  1  0
  6  7  2  0
  6  8  1  0
  7 10  1  0
  8 11  2  0
  9 10  2  0
  9 11  1  0
 12 15  2  0
 12 17  1  0
 12 21  1  0
 14 15  1  0
 14 18  2  0
 16 19  1  0
 16 22  2  0
 16 23  1  0
 17 20  2  0
 18 20  1  0
 22 24  1  0
 23 25  2  0
 24 26  2  0
 25 26  1  0
M  END
>  <PUBCHEM_COMPOUND_CID>  (1) 
49832

>  <PUBCHEM_CONFORMER_RMSD>  (1) 
0.8

>  <PUBCHEM_CONFORMER_DIVERSEORDER>  (1) 
3
51
48
19
75
23
1
29
40
66
99
103
104
32
96
93
71
73
35
90
69
31
107
45
61
63
79
43
44
88
47
84
97
62
77
39
92
57
16
33
11
89
56
74
28
50
2
41
80
67
54
87
17
98
18
85
22
7
76
100
49
105
64
81
25
91
94
30
12
55
42
60
83
72
65
95
8
6
58
20
102
70
59
4
52
9
14
10
68
86
101
82
34
21
27
38
5
106
26
36
24
53
15
13
37
78
46

>  <PUBCHEM_MMFF94_PARTIAL_CHARGES>  (1) 
39
1 -0.13
10 -0.15
11 -0.15
12 -0.14
13 0.37
14 0.18
15 -0.15
16 0.09
17 -0.15
18 -0.15
19 0.63
2 -0.57
20 -0.15
21 0.14
22 -0.15
23 -0.15
24 -0.15
25 -0.15
26 -0.15
27 0.15
28 0.15
29 0.15
3 -0.49
30 0.15
34 0.15
35 0.15
36 0.15
37 0.15
4 -0.18
41 0.15
42 0.15
43 0.15
44 0.15
45 0.15
5 -0.18
6 0.1
7 -0.15
8 -0.15
9 0.18

>  <PUBCHEM_EFFECTIVE_ROTOR_COUNT>  (1) 
6

>  <PUBCHEM_PHARMACOPHORE_FEATURES>  (1) 
4
1 2 acceptor
6 12 14 15 17 18 20 rings
6 16 22 23 24 25 26 rings
6 6 7 8 9 10 11 rings

>  <PUBCHEM_HEAVY_ATOM_COUNT>  (1) 
26

>  <PUBCHEM_ATOM_DEF_STEREO_COUNT>  (1) 
0

>  <PUBCHEM_ATOM_UDEF_STEREO_COUNT>  (1) 
0

>  <PUBCHEM_BOND_DEF_STEREO_COUNT>  (1) 
0

>  <PUBCHEM_BOND_UDEF_STEREO_COUNT>  (1) 
0

>  <PUBCHEM_ISOTOPIC_ATOM_COUNT>  (1) 
0

>  <PUBCHEM_COMPONENT_COUNT>  (1) 
1

>  <PUBCHEM_CACTVS_TAUTO_COUNT>  (1) 
1

>  <PUBCHEM_CONFORMER_ID>  (1) 
0000C2A800000003

>  <PUBCHEM_MMFF94_ENERGY>  (1) 
87.0708

>  <PUBCHEM_FEATURE_SELFOVERLAP>  (1) 
20.297

>  <PUBCHEM_SHAPE_FINGERPRINT>  (1) 
10 15 11095879397848823263
10050765 1 18411698798664910945
10299344 5 18410578396114863479
10595046 47 18334860468603462992
10939801 23 18270960262995880446
11135609 201 10954003834056132239
11476731 47 17532664635825591836
11524674 6 16559028294594442935
117089 54 18120377811724213075
11809386 21 18335696092523003129
11963148 33 18412256212669251430
12107183 9 18342749503483101513
12166972 35 17894632569286706172
12592606 108 18340764940798060623
12633257 1 15697714921794525877
12760667 363 18272364283451732319
13248334 5 17907294708829381481
13540713 4 18269250474770128841
1361 4 18411138009380414362
13631057 29 18411980243359358016
13673619 4 18060418036398145945
13685833 64 18343865528331423018
13690498 29 18114174238323016445
13782708 43 18131343111994930658
14068700 675 18412546530719094321
14178184 131 18057885930240729735
14251764 30 18410289246485197567
14347332 77 18408885131202429101
14420673 8 18410575128705294747
14556957 393 16733276663706920869
14767858 380 17967535683703567026
14931854 50 17822279207133109283
15142383 8 8286200544732780574
15183329 4 18187081767138466314
15352257 5 18411699897959721579
15461852 350 18410300177925779662
16992752 21 18341060678601616756
17780758 139 17847064368254965817
18335252 98 18060142034085294686
19427546 20 18262235517680905853
19958102 18 16805605837386415018
20281389 69 8934992677357814862
20505436 4 17461439114703179329
21049683 271 18341897428979474856
21150785 3 17967534588676641618
21196832 93 18115314508858667578
21267235 1 18408888473388046761
21344244 246 17970353830774689132
21403212 168 9727642678874813796
22950370 63 18339080510179140493
23424782 7 18343020021755412704
23424784 1240 17988086582572000678
23522609 53 18123503602500539545
23559900 14 18340756126755198553
2838139 119 11241973702190774659
3004659 81 18114739429916906921
335352 9 18411414004616451061
393628 194 9079126566059855699
397830 11 17845922009659178240
4015057 19 17822024120345976048
4107672 100 17895185564249883397
439807 62 18408322172532336107
465052 167 18201720661114040246
474113 269 17986659567604862871
5104073 3 17988921167235906232
54039377 194 18336271227684134999
5470011 282 17676489479394796286
636775 72 8213843874357302398
636775 8 18412834590339625438
6700243 42 17913801365191660484
7970288 3 18410569617660945203
8863177 126 18201713002675817410
999808 66 18344149193704862863

>  <PUBCHEM_SHAPE_MULTIPOLES>  (1) 
508.39
22.35
3.16
0.91
15.46
0.9
-0.03
-17.48
-2.79
-3.5
0.07
0.32
-0.05
-1.13

>  <PUBCHEM_SHAPE_SELFOVERLAP>  (1) 
1099.358

>  <PUBCHEM_SHAPE_VOLUME>  (1) 
279.3

>  <PUBCHEM_COORDINATE_TYPE>  (1) 
2
5
10

$$$$
