49838
     RDKit          3D

 21 24  0  0  1  0  0  0  0  0999 V2000
   -4.0115   -2.1649   -0.0781 O   0  0  0  0  0  0  0  0  0  0  0  0
   -4.3214    0.1237   -1.5489 O   0  0  0  0  0  0  0  0  0  0  0  0
   -1.3637    0.4133    0.2845 C   0  0  0  0  0  0  0  0  0  0  0  0
   -1.9911   -0.8539    0.3093 C   0  0  0  0  0  0  0  0  0  0  0  0
    0.0619    0.5163    0.1686 C   0  0  0  0  0  0  0  0  0  0  0  0
   -3.4963   -0.9592    0.4803 C   0  0  0  0  0  0  0  0  0  0  0  0
    0.8582   -0.6645    0.1049 C   0  0  0  0  0  0  0  0  0  0  0  0
   -4.2430    0.2371   -0.1290 C   0  0  0  0  0  0  0  0  0  0  0  0
    0.7356    1.7537    0.1023 C   0  0  0  0  0  0  0  0  0  0  0  0
    2.2959   -0.5751   -0.0083 C   0  0  0  0  0  0  0  0  0  0  0  0
   -1.2039   -2.0004    0.2633 C   0  0  0  0  0  0  0  0  0  0  0  0
   -2.2387    1.6033    0.4029 C   0  0  0  0  0  0  0  0  0  0  0  0
    0.1823   -1.9034    0.1596 C   0  0  0  0  0  0  0  0  0  0  0  0
   -3.5594    1.5276    0.1862 C   0  0  0  0  0  0  0  0  0  0  0  0
    2.9090    0.6998   -0.0628 C   0  0  0  0  0  0  0  0  0  0  0  0
    2.1212    1.8450   -0.0087 C   0  0  0  0  0  0  0  0  0  0  0  0
    0.1065    3.1121    0.0299 C   0  0  0  0  0  0  0  0  0  0  0  0
    3.1705   -1.6922   -0.0714 C   0  0  0  0  0  0  0  0  0  0  0  0
    4.3049    0.8286   -0.1728 C   0  0  0  0  0  0  0  0  0  0  0  0
    4.5577   -1.5546   -0.1805 C   0  0  0  0  0  0  0  0  0  0  0  0
    5.1255   -0.2922   -0.2311 C   0  0  0  0  0  0  0  0  0  0  0  0
  1  6  1  0
  2  8  1  0
  3  4  2  0
  3  5  1  0
  3 12  1  0
  4  6  1  0
  4 11  1  0
  5  7  2  0
  5  9  1  0
  6  8  1  0
  7 10  1  0
  7 13  1  0
  8 14  1  0
  9 16  2  0
  9 17  1  0
 10 15  2  0
 10 18  1  0
 11 13  2  0
 12 14  2  0
 15 16  1  0
 15 19  1  0
 18 20  2  0
 19 21  2  0
 20 21  1  0
M  END
>  <PUBCHEM_COMPOUND_CID>  (1) 
49838

>  <PUBCHEM_CONFORMER_RMSD>  (1) 
0.6

>  <PUBCHEM_CONFORMER_DIVERSEORDER>  (1) 
2
1

>  <PUBCHEM_MMFF94_PARTIAL_CHARGES>  (1) 
28
1 -0.68
11 -0.15
12 -0.18
13 -0.15
14 -0.29
16 -0.15
17 0.14
18 -0.15
19 -0.15
2 -0.68
20 -0.15
21 -0.15
24 0.15
25 0.15
26 0.15
27 0.15
28 0.15
3 0.03
32 0.15
33 0.15
34 0.4
35 0.4
36 0.15
37 0.15
4 -0.14
6 0.42
8 0.42
9 -0.14

>  <PUBCHEM_EFFECTIVE_ROTOR_COUNT>  (1) 
0.4

>  <PUBCHEM_PHARMACOPHORE_FEATURES>  (1) 
8
1 1 acceptor
1 1 donor
1 2 acceptor
1 2 donor
6 10 15 18 19 20 21 rings
6 3 4 5 7 11 13 rings
6 3 4 6 8 12 14 rings
6 5 7 9 10 15 16 rings

>  <PUBCHEM_HEAVY_ATOM_COUNT>  (1) 
21

>  <PUBCHEM_ATOM_DEF_STEREO_COUNT>  (1) 
0

>  <PUBCHEM_ATOM_UDEF_STEREO_COUNT>  (1) 
2

>  <PUBCHEM_BOND_DEF_STEREO_COUNT>  (1) 
0

>  <PUBCHEM_BOND_UDEF_STEREO_COUNT>  (1) 
0

>  <PUBCHEM_ISOTOPIC_ATOM_COUNT>  (1) 
0

>  <PUBCHEM_COMPONENT_COUNT>  (1) 
1

>  <PUBCHEM_CACTVS_TAUTO_COUNT>  (1) 
1

>  <PUBCHEM_CONFORMER_ID>  (1) 
0000C2AE00000002

>  <PUBCHEM_MMFF94_ENERGY>  (1) 
87.6945

>  <PUBCHEM_FEATURE_SELFOVERLAP>  (1) 
40.674

>  <PUBCHEM_SHAPE_FINGERPRINT>  (1) 
10062212 137 18273213093100530567
10693767 8 18200573823184335471
10967382 1 18410577301130064800
11458722 379 18408889503367996298
11471102 20 18410009936203373302
11680986 33 18267303320879886536
116883 192 18269563736914704782
12011746 2 18409448072412499956
12236239 1 17846499219025165369
12403259 226 18266456684495245041
13140716 1 18411427171846717360
13583140 156 14404335049903180802
138480 1 15095646066406677176
13862211 1 18410852127640053354
14790565 3 17691975856012541529
15099037 51 18408603656072367295
15196674 1 18410577288308336474
15442244 35 18411141333346594992
15536298 74 18342458153637689360
16752209 62 18263076622363466832
16945 1 18122350334929146072
17349148 13 18202002118393897266
17357779 13 18262506031331027460
17492 89 18267867357508155799
18186145 218 18113614577728831419
19591789 44 18410012130573264282
19862831 5 18187082849453822018
200 152 17989203746308861171
20028762 73 18130224977521893639
20775438 99 16906606103925798983
21029758 11 18413669110405045088
21267235 1 18410867563367419354
21279426 13 18264769852810512222
21421861 104 17753894913528036450
221357 26 18409721881531950845
221490 88 18264213688931876659
22393880 68 18261094289045722687
2334 1 18410579508484727200
23402539 116 18343579612152689572
23559900 14 18341328985472140424
2748010 2 18410578408988930104
2871803 45 18335984177781442622
3004659 81 18187086135921545958
335352 9 18338519616734313037
34934 24 18411132576409490266
350125 39 18409737283274364937
4214541 1 18410858741493745008
5104073 3 18411140242303537922
69090 78 18341611507972302750
7364860 26 18125161782178073656
9709674 26 18264774431203756867
9981440 41 17399516122537796448

>  <PUBCHEM_SHAPE_MULTIPOLES>  (1) 
420.43
9.17
2.64
0.73
2.02
0.71
-0.12
-2.07
-1.39
-0.29
0.13
-0.43
0
0.03

>  <PUBCHEM_SHAPE_SELFOVERLAP>  (1) 
950.917

>  <PUBCHEM_SHAPE_VOLUME>  (1) 
220.1

>  <PUBCHEM_COORDINATE_TYPE>  (1) 
2
5
10

$$$$
