49855
     RDKit          3D

 22 25  0  0  0  0  0  0  0  0999 V2000
   -5.9793    0.1015    0.0003 O   0  0  0  0  0  0  0  0  0  0  0  0
    6.0773    0.6835    0.0001 O   0  0  0  0  0  0  0  0  0  0  0  0
    0.4689    0.0303   -0.0002 C   0  0  0  0  0  0  0  0  0  0  0  0
   -0.0384   -1.2922   -0.0001 C   0  0  0  0  0  0  0  0  0  0  0  0
   -0.4872    1.0782   -0.0002 C   0  0  0  0  0  0  0  0  0  0  0  0
   -1.4244   -1.5285   -0.0001 C   0  0  0  0  0  0  0  0  0  0  0  0
   -1.8761    0.8470   -0.0002 C   0  0  0  0  0  0  0  0  0  0  0  0
   -2.3506   -0.4770   -0.0001 C   0  0  0  0  0  0  0  0  0  0  0  0
    1.8951    0.2357   -0.0002 C   0  0  0  0  0  0  0  0  0  0  0  0
    2.7576   -0.8916    0.0000 C   0  0  0  0  0  0  0  0  0  0  0  0
    0.8425   -2.3772    0.0000 C   0  0  0  0  0  0  0  0  0  0  0  0
    2.2193   -2.1803    0.0001 C   0  0  0  0  0  0  0  0  0  0  0  0
   -0.1175    2.5338    0.0010 C   0  0  0  0  0  0  0  0  0  0  0  0
   -2.8005    1.9061   -0.0003 C   0  0  0  0  0  0  0  0  0  0  0  0
   -3.7358   -0.7148   -0.0001 C   0  0  0  0  0  0  0  0  0  0  0  0
   -1.9378   -2.9453    0.0003 C   0  0  0  0  0  0  0  0  0  0  0  0
    2.5167    1.5100   -0.0003 C   0  0  0  0  0  0  0  0  0  0  0  0
    4.1532   -0.7259    0.0001 C   0  0  0  0  0  0  0  0  0  0  0  0
   -4.6406    0.3466   -0.0001 C   0  0  0  0  0  0  0  0  0  0  0  0
   -4.1732    1.6565    0.0000 C   0  0  0  0  0  0  0  0  0  0  0  0
    3.9062    1.6612   -0.0001 C   0  0  0  0  0  0  0  0  0  0  0  0
    4.7247    0.5426    0.0001 C   0  0  0  0  0  0  0  0  0  0  0  0
  1 19  1  0
  2 22  1  0
  3  4  1  0
  3  5  2  0
  3  9  1  0
  4  6  2  0
  4 11  1  0
  5  7  1  0
  5 13  1  0
  6  8  1  0
  6 16  1  0
  7  8  2  0
  7 14  1  0
  8 15  1  0
  9 10  2  0
  9 17  1  0
 10 12  1  0
 10 18  1  0
 11 12  2  0
 14 20  2  0
 15 19  2  0
 17 21  2  0
 18 22  2  0
 19 20  1  0
 21 22  1  0
M  END
>  <PUBCHEM_COMPOUND_CID>  (1) 
49855

>  <PUBCHEM_CONFORMER_RMSD>  (1) 
0.6

>  <PUBCHEM_CONFORMER_DIVERSEORDER>  (1) 
1

>  <PUBCHEM_MMFF94_PARTIAL_CHARGES>  (1) 
26
1 -0.53
11 -0.15
12 -0.15
13 0.14
14 -0.15
15 -0.15
16 0.14
17 -0.15
18 -0.15
19 0.08
2 -0.53
20 -0.15
21 -0.15
22 0.08
23 0.15
24 0.15
28 0.15
29 0.15
33 0.15
34 0.15
35 0.15
36 0.15
37 0.45
38 0.45
5 -0.14
6 -0.14

>  <PUBCHEM_EFFECTIVE_ROTOR_COUNT>  (1) 
0

>  <PUBCHEM_PHARMACOPHORE_FEATURES>  (1) 
6
1 1 donor
1 2 donor
6 3 4 5 6 7 8 rings
6 3 4 9 10 11 12 rings
6 7 8 14 15 19 20 rings
6 9 10 17 18 21 22 rings

>  <PUBCHEM_HEAVY_ATOM_COUNT>  (1) 
22

>  <PUBCHEM_ATOM_DEF_STEREO_COUNT>  (1) 
0

>  <PUBCHEM_ATOM_UDEF_STEREO_COUNT>  (1) 
0

>  <PUBCHEM_BOND_DEF_STEREO_COUNT>  (1) 
0

>  <PUBCHEM_BOND_UDEF_STEREO_COUNT>  (1) 
0

>  <PUBCHEM_ISOTOPIC_ATOM_COUNT>  (1) 
0

>  <PUBCHEM_COMPONENT_COUNT>  (1) 
1

>  <PUBCHEM_CACTVS_TAUTO_COUNT>  (1) 
8

>  <PUBCHEM_CONFORMER_ID>  (1) 
0000C2BF00000001

>  <PUBCHEM_MMFF94_ENERGY>  (1) 
110.8829

>  <PUBCHEM_FEATURE_SELFOVERLAP>  (1) 
30.519

>  <PUBCHEM_SHAPE_FINGERPRINT>  (1) 
10 15 18262231231646202240
10411042 1 17257934793468355247
10616163 171 18339363066691369118
10906281 52 18339662082398672277
10967382 1 18410855442958861606
1100329 8 18339081621800476601
11112241 14 16341147008760599048
11578080 2 13900535562171188113
12011746 2 18411981364472604589
12107183 9 17548420306511636737
12390115 104 18128833962078547529
12403814 3 17676483939087158621
12788726 201 17560806459316890232
12838862 33 18338497708064327564
13140716 1 18050576432598470441
13402501 40 18410855464502555712
138480 1 17617941331261432263
14787075 74 18413666916182834075
14790565 3 18411426085426239033
15042514 8 18264492974034792731
15196674 1 18338797810255672007
15536298 74 18342176618157039526
16945 1 18267867176987121351
19591789 44 18338234856297485703
200 152 18059853956673068609
20510252 161 18271527481503410697
20715895 44 17757821239565752397
20739085 24 18048626749369610769
21236236 1 18341049739393597623
21267235 1 18410864239052078719
21279426 13 18268432321948185380
21421861 104 17896591792002706706
22182313 1 18198085692357317862
23227448 37 18412825819367378487
2334 1 18266741466375175462
23402539 116 18343014523295025022
23559900 14 18271242820214932104
2748010 2 18339648944151866030
3004659 81 18335144151478304526
335352 9 18410574006689598076
34934 24 18410289220261901506
350125 39 18409449215406979092
3545911 37 18411702088719485940
3680242 22 18335700473526866922
4214541 1 18410856576904282148
474 4 17894636976028594356
474229 33 18410293613991891567
495365 180 17346306146690683466
5104073 3 18336829680183948851
59755656 215 18412550877800744694
59755656 520 17095239246025055938
69090 78 18411135827230280327
7364860 26 18269557139755689478
9709674 26 18413113844216954494

>  <PUBCHEM_SHAPE_MULTIPOLES>  (1) 
441.01
10.22
2.74
0.61
1.06
0.82
0
-3.12
0
-0.32
0
0
0
0

>  <PUBCHEM_SHAPE_SELFOVERLAP>  (1) 
1010.484

>  <PUBCHEM_SHAPE_VOLUME>  (1) 
231.4

>  <PUBCHEM_COORDINATE_TYPE>  (1) 
2
5
10

$$$$
