49866
     RDKit          3D

 23 24  0  0  0  0  0  0  0  0999 V2000
    1.0498   -2.4071    0.1154 O   0  0  0  0  0  0  0  0  0  0  0  0
    1.1042    2.3794    0.1093 O   0  0  0  0  0  0  0  0  0  0  0  0
   -3.5698   -0.0076   -1.7573 O   0  0  0  0  0  0  0  0  0  0  0  0
   -4.5716    0.0556    0.4336 O   0  0  0  0  0  0  0  0  0  0  0  0
    2.3593   -1.3541    1.6850 O   0  0  0  0  0  0  0  0  0  0  0  0
    2.3902    1.3011    1.6811 O   0  0  0  0  0  0  0  0  0  0  0  0
    3.4948   -0.0011   -2.9448 N   0  0  0  0  0  0  0  0  0  0  0  0
    1.0647   -0.0137    0.0746 C   0  0  0  0  0  0  0  0  0  0  0  0
    1.5846   -0.0238   -1.4015 C   0  0  0  0  0  0  0  0  0  0  0  0
   -0.4730    0.0058    0.2106 C   0  0  0  0  0  0  0  0  0  0  0  0
    3.1154    0.0015   -1.5348 C   0  0  0  0  0  0  0  0  0  0  0  0
    1.5815   -1.3106    0.7402 C   0  0  0  0  0  0  0  0  0  0  0  0
    1.6121    1.2730    0.7360 C   0  0  0  0  0  0  0  0  0  0  0  0
   -1.2709   -0.0136   -0.9359 C   0  0  0  0  0  0  0  0  0  0  0  0
   -1.0576    0.0429    1.4887 C   0  0  0  0  0  0  0  0  0  0  0  0
   -2.6397    0.0050   -0.7637 C   0  0  0  0  0  0  0  0  0  0  0  0
   -3.2119    0.0413    0.4872 C   0  0  0  0  0  0  0  0  0  0  0  0
   -2.4467    0.0609    1.6352 C   0  0  0  0  0  0  0  0  0  0  0  0
   -4.7914    0.0240   -0.9913 C   0  0  0  0  0  0  0  0  0  0  0  0
    1.4586   -3.6760    0.6353 C   0  0  0  0  0  0  0  0  0  0  0  0
    1.5397    3.6401    0.6274 C   0  0  0  0  0  0  0  0  0  0  0  0
    0.7863   -4.7746   -0.1602 C   0  0  0  0  0  0  0  0  0  0  0  0
    0.8913    4.7516   -0.1701 C   0  0  0  0  0  0  0  0  0  0  0  0
  1 12  1  0
  1 20  1  0
  2 13  1  0
  2 21  1  0
  3 16  1  0
  3 19  1  0
  4 17  1  0
  4 19  1  0
  5 12  2  0
  6 13  2  0
  7 11  1  0
  8  9  1  0
  8 10  1  0
  8 12  1  0
  8 13  1  0
  9 11  1  0
 10 14  1  0
 10 15  2  0
 14 16  2  0
 15 18  1  0
 16 17  1  0
 17 18  2  0
 20 22  1  0
 21 23  1  0
M  END
>  <PUBCHEM_COMPOUND_CID>  (1) 
49866

>  <PUBCHEM_CONFORMER_RMSD>  (1) 
1

>  <PUBCHEM_CONFORMER_DIVERSEORDER>  (1) 
1
4
10
11
25
23
21
13
5
20
17
18
28
7
29
27
26
9
8
6
22
12
16
15
3
14
24
19
30
2

>  <PUBCHEM_MMFF94_PARTIAL_CHARGES>  (1) 
25
1 -0.43
10 -0.14
11 0.27
12 0.66
13 0.66
14 -0.15
15 -0.15
16 0.08
17 0.08
18 -0.15
19 0.56
2 -0.43
20 0.28
21 0.28
28 0.15
29 0.15
3 -0.36
30 0.15
31 0.36
32 0.36
4 -0.36
5 -0.57
6 -0.57
7 -0.99
8 0.27

>  <PUBCHEM_EFFECTIVE_ROTOR_COUNT>  (1) 
9.6

>  <PUBCHEM_PHARMACOPHORE_FEATURES>  (1) 
8
1 3 acceptor
1 4 acceptor
1 5 acceptor
1 6 acceptor
1 7 cation
1 7 donor
5 3 4 16 17 19 rings
6 10 14 15 16 17 18 rings

>  <PUBCHEM_HEAVY_ATOM_COUNT>  (1) 
23

>  <PUBCHEM_ATOM_DEF_STEREO_COUNT>  (1) 
0

>  <PUBCHEM_ATOM_UDEF_STEREO_COUNT>  (1) 
0

>  <PUBCHEM_BOND_DEF_STEREO_COUNT>  (1) 
0

>  <PUBCHEM_BOND_UDEF_STEREO_COUNT>  (1) 
0

>  <PUBCHEM_ISOTOPIC_ATOM_COUNT>  (1) 
0

>  <PUBCHEM_COMPONENT_COUNT>  (1) 
1

>  <PUBCHEM_CACTVS_TAUTO_COUNT>  (1) 
1

>  <PUBCHEM_CONFORMER_ID>  (1) 
0000C2CA00000001

>  <PUBCHEM_MMFF94_ENERGY>  (1) 
46.4412

>  <PUBCHEM_FEATURE_SELFOVERLAP>  (1) 
40.76

>  <PUBCHEM_SHAPE_FINGERPRINT>  (1) 
11578080 2 17340376282539221568
11725454 13 16666499006452881589
13134695 92 18044348605032689104
13149001 5 17981074064944664644
13533116 47 18337956676415545467
13681431 1 17971756571166632458
13911987 19 18118150089517177862
14787075 74 17408236323846047143
14863182 85 18339072679921776578
16945 1 18410571786513265673
1813 80 17988090993413138412
18186145 218 18343300388345516341
19765921 60 17841702208543594457
20691752 17 18272104764200217104
21524375 3 17694208272453852640
22112679 90 17771078089625876658
2255824 54 18341046401918710761
229495 10 16908567331641725122
23114952 82 17605004615035316031
23419403 2 17101948350250510594
23558518 356 17765983283576375486
23559900 14 18337377306337668171
238 59 18335144232138463411
298252 57 16807037513305120548
3060560 45 18411414037979079158
3250762 1 17549007866912279390
3493558 16 15300510006350537500
44802255 64 16375845324318444014
474 4 18196080260774014449
495365 180 18261661679900479773
633830 44 18201728392139594777
6443956 14 17976527322186611283
81228 2 17033871920033746130
9981440 41 14060989695257564940

>  <PUBCHEM_SHAPE_MULTIPOLES>  (1) 
433.13
6.13
4.68
1.86
7.89
0.21
-0.73
-0.22
-2.42
-4.74
0.86
-0.95
0
-0.02

>  <PUBCHEM_SHAPE_SELFOVERLAP>  (1) 
905.589

>  <PUBCHEM_SHAPE_VOLUME>  (1) 
245.2

>  <PUBCHEM_COORDINATE_TYPE>  (1) 
2
5
10

$$$$
