49860
     RDKit          3D

 18 18  0  0  1  0  0  0  0  0999 V2000
   -2.9517    0.6122   -0.3443 S   0  0  0  0  0  0  0  0  0  0  0  0
   -2.1840    1.5331    0.4703 O   0  0  0  0  0  0  0  0  0  0  0  0
   -3.1000    0.8194   -1.7710 O   0  0  0  0  0  0  0  0  0  0  0  0
    1.5017   -1.3356   -1.8008 O   0  0  0  0  0  0  0  0  0  0  0  0
    2.5413    0.2504   -0.4585 N   0  0  0  0  0  0  0  0  0  0  0  0
   -2.2836   -1.0162   -0.0988 C   0  0  0  0  0  0  0  0  0  0  0  0
   -0.9210   -1.1742   -0.7861 C   0  0  0  0  0  0  0  0  0  0  0  0
    2.5015    1.2777    0.5899 C   0  0  0  0  0  0  0  0  0  0  0  0
    3.8477    0.0762   -1.0972 C   0  0  0  0  0  0  0  0  0  0  0  0
    0.1420   -0.2679   -0.1807 C   0  0  0  0  0  0  0  0  0  0  0  0
    3.5558    1.0011    1.6595 C   0  0  0  0  0  0  0  0  0  0  0  0
    4.9263   -0.2243   -0.0603 C   0  0  0  0  0  0  0  0  0  0  0  0
    4.9433    0.8335    1.0420 C   0  0  0  0  0  0  0  0  0  0  0  0
   -2.2406   -1.3659    1.3973 C   0  0  0  0  0  0  0  0  0  0  0  0
    1.4511   -0.5040   -0.8908 C   0  0  0  0  0  0  0  0  0  0  0  0
   -4.5768    0.4866    0.3598 C   0  0  0  0  0  0  0  0  0  0  0  0
   -1.8224   -2.7952    1.7178 C   0  0  0  0  0  0  0  0  0  0  0  0
   -5.3306    1.7933    0.2517 C   0  0  0  0  0  0  0  0  0  0  0  0
  1  2  2  0
  1  3  2  0
  1  6  1  0
  1 16  1  0
  4 15  2  0
  5  8  1  0
  5  9  1  0
  5 15  1  0
  6  7  1  0
  6 14  1  0
  7 10  1  0
  8 11  1  0
  9 12  1  0
 10 15  1  0
 11 13  1  0
 12 13  1  0
 14 17  1  0
 16 18  1  0
M  END
>  <PUBCHEM_COMPOUND_CID>  (1) 
49860

>  <PUBCHEM_CONFORMER_RMSD>  (1) 
0.8

>  <PUBCHEM_CONFORMER_DIVERSEORDER>  (1) 
1
91
67
108
22
58
68
130
147
73
18
93
120
103
105
42
4
129
110
149
71
119
95
74
85
87
148
92
75
94
135
86
29
97
124
12
102
116
2
133
79
6
126
131
83
90
112
70
99
138
53
76
117
38
33
3
52
115
81
10
72
121
142
152
15
104
51
132
140
24
127
88
98
113
107
141
145
26
151
34
65
109
39
45
25
44
13
36
37
35
7
64
61
5
63
17
46
56
128
89
20
9
122
134
80
23
137
11
139
150
16
77
40
96
144
28
62
49
101
125
111
48
114
47
19
43
146
106
123
78
8
59
60
30
82
21
143
50
118
66
41
27
69
55
100
31
84
57
54
136
32
14

>  <PUBCHEM_MMFF94_PARTIAL_CHARGES>  (1) 
11
1 1.09
10 0.06
15 0.57
16 0.11
2 -0.65
3 -0.65
4 -0.57
5 -0.66
6 0.11
8 0.3
9 0.3

>  <PUBCHEM_EFFECTIVE_ROTOR_COUNT>  (1) 
8.2

>  <PUBCHEM_PHARMACOPHORE_FEATURES>  (1) 
5
1 17 hydrophobe
1 2 acceptor
1 3 acceptor
1 4 acceptor
6 5 8 9 11 12 13 rings

>  <PUBCHEM_HEAVY_ATOM_COUNT>  (1) 
18

>  <PUBCHEM_ATOM_DEF_STEREO_COUNT>  (1) 
0

>  <PUBCHEM_ATOM_UDEF_STEREO_COUNT>  (1) 
1

>  <PUBCHEM_BOND_DEF_STEREO_COUNT>  (1) 
0

>  <PUBCHEM_BOND_UDEF_STEREO_COUNT>  (1) 
0

>  <PUBCHEM_ISOTOPIC_ATOM_COUNT>  (1) 
0

>  <PUBCHEM_COMPONENT_COUNT>  (1) 
1

>  <PUBCHEM_CACTVS_TAUTO_COUNT>  (1) 
1

>  <PUBCHEM_CONFORMER_ID>  (1) 
0000C2C400000001

>  <PUBCHEM_MMFF94_ENERGY>  (1) 
18.7705

>  <PUBCHEM_FEATURE_SELFOVERLAP>  (1) 
25.389

>  <PUBCHEM_SHAPE_FINGERPRINT>  (1) 
11543360 7 12103568619340616118
12403259 415 17917715759481705102
124424 183 18412544314758218262
12500047 106 18040710376959817082
12553582 1 14490464327166364914
12596602 18 16371020606474824213
12633257 1 18040433317156804325
13402501 40 18131066017648186720
13533116 47 18265612091597509234
13583140 156 18339919428650138490
13675066 3 18411982507514173382
14178342 30 17967820482695379787
14251764 30 14635422724791509144
15295992 7 18343582979433560016
15375358 24 18273498970181362253
15375462 189 15502371253460292948
15537594 2 15647048270751201538
15653759 3 18337676420396897162
17959699 21 16773796978605028009
1813 80 14490471937796127302
18219364 16 17632023068862164906
19862831 5 15554446301272928319
200 152 15410892963902616573
20645477 56 18272373057642669687
20645477 70 17560806502952072814
21033648 29 18059567040373610656
212916 134 18259701181874559243
21713013 43 8646502833504427010
22224240 67 18260838073351954673
22926399 37 16415761929352564163
23402539 116 18408880742093538197
23402655 69 16702302338615164661
23503953 91 17749107824642126504
23503958 8 17531808086091493266
235170 7 9655308050798149178
23557571 272 18339658831314352559
23559900 14 18335998466816338270
23598291 2 16009324217745651870
23622692 88 16950282901462474703
2838139 119 17917423169272680857
2916195 48 18342736295862553873
312423 11 16879083033668083726
351380 180 18060696186975165072
474 4 16845292778331012522
59755656 520 18333447621741950055
633830 44 18336541720444924046
90127 26 18270405009428590104

>  <PUBCHEM_SHAPE_MULTIPOLES>  (1) 
351.69
10.87
1.96
1.59
2.62
1.02
0.03
-5.22
-2.09
-2.28
-0.86
0.6
0.36
1.33

>  <PUBCHEM_SHAPE_SELFOVERLAP>  (1) 
672.146

>  <PUBCHEM_SHAPE_VOLUME>  (1) 
215.5

>  <PUBCHEM_COORDINATE_TYPE>  (1) 
2
5
10

$$$$
