49870
     RDKit          3D

 22 22  0  0  0  0  0  0  0  0999 V2000
    0.8489   -2.3980    0.0871 O   0  0  0  0  0  0  0  0  0  0  0  0
    0.8294    2.3888    0.0797 O   0  0  0  0  0  0  0  0  0  0  0  0
    1.6701   -1.3260    1.9482 O   0  0  0  0  0  0  0  0  0  0  0  0
    1.6601    1.3294    1.9438 O   0  0  0  0  0  0  0  0  0  0  0  0
    3.9916    0.0489   -2.2082 N   0  0  0  0  0  0  0  0  0  0  0  0
    0.8376   -0.0047    0.0437 C   0  0  0  0  0  0  0  0  0  0  0  0
    1.7364   -0.0052   -1.2374 C   0  0  0  0  0  0  0  0  0  0  0  0
   -0.6799   -0.0094   -0.2402 C   0  0  0  0  0  0  0  0  0  0  0  0
    3.2459    0.0442   -0.9528 C   0  0  0  0  0  0  0  0  0  0  0  0
    1.1755   -1.2939    0.8285 C   0  0  0  0  0  0  0  0  0  0  0  0
    1.1663    1.2899    0.8239 C   0  0  0  0  0  0  0  0  0  0  0  0
   -1.5361    0.0179    0.8281 C   0  0  0  0  0  0  0  0  0  0  0  0
   -1.0916   -0.0399   -1.5459 C   0  0  0  0  0  0  0  0  0  0  0  0
   -2.9072    0.0146    0.5716 C   0  0  0  0  0  0  0  0  0  0  0  0
   -3.3706   -0.0162   -0.7436 C   0  0  0  0  0  0  0  0  0  0  0  0
   -2.4628   -0.0435   -1.8024 C   0  0  0  0  0  0  0  0  0  0  0  0
   -3.8604    0.0417    1.7210 C   0  0  0  0  0  0  0  0  0  0  0  0
   -4.8338   -0.0220   -1.0432 C   0  0  0  0  0  0  0  0  0  0  0  0
    1.1217   -3.6608    0.7022 C   0  0  0  0  0  0  0  0  0  0  0  0
    1.0896    3.6557    0.6919 C   0  0  0  0  0  0  0  0  0  0  0  0
    0.7060   -4.7691   -0.2414 C   0  0  0  0  0  0  0  0  0  0  0  0
    0.6633    4.7575   -0.2547 C   0  0  0  0  0  0  0  0  0  0  0  0
  1 10  1  0
  1 19  1  0
  2 11  1  0
  2 20  1  0
  3 10  2  0
  4 11  2  0
  5  9  1  0
  6  7  1  0
  6  8  1  0
  6 10  1  0
  6 11  1  0
  7  9  1  0
  8 12  2  0
  8 13  1  0
 12 14  1  0
 13 16  2  0
 14 15  2  0
 14 17  1  0
 15 16  1  0
 15 18  1  0
 19 21  1  0
 20 22  1  0
M  END
>  <PUBCHEM_COMPOUND_CID>  (1) 
49870

>  <PUBCHEM_CONFORMER_RMSD>  (1) 
0.8

>  <PUBCHEM_CONFORMER_DIVERSEORDER>  (1) 
1
111
91
86
83
19
95
18
94
64
80
107
61
12
59
104
41
75
32
103
67
31
90
40
79
34
108
89
87
93
72
77
56
68
110
71
66
17
52
106
29
42
88
30
65
36
53
100
7
39
109
84
97
82
27
37
92
46
99
6
35
38
25
96
81
78
22
105
69
101
8
47
63
14
98
49
60
23
73
21
102
43
70
85
58
55
16
10
33
54
62
20
51
48
50
15
57
24
45
13
11
76
9
26
3
74
28
4
44
2
5

>  <PUBCHEM_MMFF94_PARTIAL_CHARGES>  (1) 
24
1 -0.43
10 0.66
11 0.66
12 -0.15
13 -0.15
14 -0.14
15 -0.14
16 -0.15
17 0.14
18 0.14
19 0.28
2 -0.43
20 0.28
27 0.15
28 0.15
29 0.15
3 -0.57
33 0.36
34 0.36
4 -0.57
5 -0.99
6 0.27
8 -0.14
9 0.27

>  <PUBCHEM_EFFECTIVE_ROTOR_COUNT>  (1) 
9

>  <PUBCHEM_PHARMACOPHORE_FEATURES>  (1) 
5
1 3 acceptor
1 4 acceptor
1 5 cation
1 5 donor
6 8 12 13 14 15 16 rings

>  <PUBCHEM_HEAVY_ATOM_COUNT>  (1) 
22

>  <PUBCHEM_ATOM_DEF_STEREO_COUNT>  (1) 
0

>  <PUBCHEM_ATOM_UDEF_STEREO_COUNT>  (1) 
0

>  <PUBCHEM_BOND_DEF_STEREO_COUNT>  (1) 
0

>  <PUBCHEM_BOND_UDEF_STEREO_COUNT>  (1) 
0

>  <PUBCHEM_ISOTOPIC_ATOM_COUNT>  (1) 
0

>  <PUBCHEM_COMPONENT_COUNT>  (1) 
1

>  <PUBCHEM_CACTVS_TAUTO_COUNT>  (1) 
1

>  <PUBCHEM_CONFORMER_ID>  (1) 
0000C2CE00000001

>  <PUBCHEM_MMFF94_ENERGY>  (1) 
48.5877

>  <PUBCHEM_FEATURE_SELFOVERLAP>  (1) 
25.38

>  <PUBCHEM_SHAPE_FINGERPRINT>  (1) 
10366900 7 18113617906961722549
12788726 201 17543339467563880523
13134695 92 17972004042654652274
13149001 5 18124054565563149916
13533116 47 18338519630727283243
13911987 19 18190201090722180222
14943834 7 17688325486239800500
15238133 3 18116704128379008869
15490181 7 17900254505251732770
15490181 8 17767112477654841408
16945 1 18410570691333534905
1813 80 18130512959415527868
21524375 3 17620741113083219745
2255824 54 18340760537622593069
229495 10 13848471268291685306
23419403 2 17541422284389362544
23558518 356 17765976682116799998
23559900 14 17132110252224298495
298252 57 16878520036981381252
3060560 45 18339348751501801855
3250762 1 17691986168465285148
474 4 18197486540430318665
495365 180 18189316018274565757
5845 1 16749603646685758755
81228 2 16964052918632087346
9981440 41 13842564984312719518
9999458 23 18267606747930111073

>  <PUBCHEM_SHAPE_MULTIPOLES>  (1) 
424.29
5.7
4.78
1.82
5.69
0.03
-0.11
0.01
-1.88
-4.12
0.87
-0.16
0
-0.07

>  <PUBCHEM_SHAPE_SELFOVERLAP>  (1) 
865.513

>  <PUBCHEM_SHAPE_VOLUME>  (1) 
247.1

>  <PUBCHEM_COORDINATE_TYPE>  (1) 
2
5
10

$$$$
