49887
     RDKit          3D

 26 28  0  0  0  0  0  0  0  0999 V2000
    0.7294    2.5828   -1.8144 O   0  0  0  0  0  0  0  0  0  0  0  0
    4.5966    1.0639    1.7199 O   0  0  0  0  0  0  0  0  0  0  0  0
    3.3393   -2.1897   -1.5613 O   0  0  0  0  0  0  0  0  0  0  0  0
    5.0841   -1.3257    0.4075 O   0  0  0  0  0  0  0  0  0  0  0  0
   -0.6076    1.5130   -0.2251 N   0  0  0  0  0  0  0  0  0  0  0  0
   -3.1507    0.3556    0.1443 N   0  0  0  0  0  0  0  0  0  0  0  0
   -5.5054    0.4958   -0.0949 N   0  0  0  0  0  0  0  0  0  0  0  0
   -4.4713   -1.5424    0.6691 N   0  0  0  0  0  0  0  0  0  0  0  0
   -0.7978    0.5282    0.8425 C   0  0  0  0  0  0  0  0  0  0  0  0
   -1.7969    2.3086   -0.5119 C   0  0  0  0  0  0  0  0  0  0  0  0
   -1.9498   -0.4145    0.4998 C   0  0  0  0  0  0  0  0  0  0  0  0
   -2.9717    1.4024   -0.8758 C   0  0  0  0  0  0  0  0  0  0  0  0
    0.5785    1.7533   -0.9187 C   0  0  0  0  0  0  0  0  0  0  0  0
   -4.4103   -0.2470    0.2419 C   0  0  0  0  0  0  0  0  0  0  0  0
    1.7570    0.9485   -0.5723 C   0  0  0  0  0  0  0  0  0  0  0  0
    1.9945   -0.2515   -1.2363 C   0  0  0  0  0  0  0  0  0  0  0  0
    2.6294    1.3903    0.4184 C   0  0  0  0  0  0  0  0  0  0  0  0
    3.7486    0.6257    0.7479 C   0  0  0  0  0  0  0  0  0  0  0  0
    3.1136   -1.0161   -0.9069 C   0  0  0  0  0  0  0  0  0  0  0  0
    3.9908   -0.5776    0.0851 C   0  0  0  0  0  0  0  0  0  0  0  0
   -5.7010   -2.0915    0.7520 C   0  0  0  0  0  0  0  0  0  0  0  0
   -6.7032   -0.1158    0.0115 C   0  0  0  0  0  0  0  0  0  0  0  0
   -6.8634   -1.4200    0.4332 C   0  0  0  0  0  0  0  0  0  0  0  0
    4.3174    0.6533    3.0569 C   0  0  0  0  0  0  0  0  0  0  0  0
    2.7657   -3.3671   -0.9967 C   0  0  0  0  0  0  0  0  0  0  0  0
    6.2844   -1.0623   -0.3155 C   0  0  0  0  0  0  0  0  0  0  0  0
  1 13  2  0
  2 18  1  0
  2 24  1  0
  3 19  1  0
  3 25  1  0
  4 20  1  0
  4 26  1  0
  5  9  1  0
  5 10  1  0
  5 13  1  0
  6 11  1  0
  6 12  1  0
  6 14  1  0
  7 14  2  0
  7 22  1  0
  8 14  1  0
  8 21  2  0
  9 11  1  0
 10 12  1  0
 13 15  1  0
 15 16  2  0
 15 17  1  0
 16 19  1  0
 17 18  2  0
 18 20  1  0
 19 20  2  0
 21 23  1  0
 22 23  2  0
M  END
>  <PUBCHEM_COMPOUND_CID>  (1) 
49887

>  <PUBCHEM_CONFORMER_RMSD>  (1) 
0.8

>  <PUBCHEM_CONFORMER_DIVERSEORDER>  (1) 
1
15
18
12
16
14
9
17
11
7
3
13
10
8
4
2
19
5
6

>  <PUBCHEM_MMFF94_PARTIAL_CHARGES>  (1) 
31
1 -0.57
10 0.3
11 0.37
12 0.37
13 0.54
14 0.72
15 0.09
16 -0.15
17 -0.15
18 0.08
19 0.08
2 -0.36
20 0.08
21 0.16
22 0.16
23 -0.15
24 0.28
25 0.28
26 0.28
3 -0.36
35 0.15
36 0.15
37 0.15
38 0.15
39 0.15
4 -0.36
5 -0.66
6 -0.84
7 -0.62
8 -0.62
9 0.3

>  <PUBCHEM_EFFECTIVE_ROTOR_COUNT>  (1) 
7.2

>  <PUBCHEM_PHARMACOPHORE_FEATURES>  (1) 
9
1 1 acceptor
1 2 acceptor
1 3 acceptor
1 4 acceptor
1 8 acceptor
4 6 7 8 14 cation
6 15 16 17 18 19 20 rings
6 5 6 9 10 11 12 rings
6 7 8 14 21 22 23 rings

>  <PUBCHEM_HEAVY_ATOM_COUNT>  (1) 
26

>  <PUBCHEM_ATOM_DEF_STEREO_COUNT>  (1) 
0

>  <PUBCHEM_ATOM_UDEF_STEREO_COUNT>  (1) 
0

>  <PUBCHEM_BOND_DEF_STEREO_COUNT>  (1) 
0

>  <PUBCHEM_BOND_UDEF_STEREO_COUNT>  (1) 
0

>  <PUBCHEM_ISOTOPIC_ATOM_COUNT>  (1) 
0

>  <PUBCHEM_COMPONENT_COUNT>  (1) 
1

>  <PUBCHEM_CACTVS_TAUTO_COUNT>  (1) 
1

>  <PUBCHEM_CONFORMER_ID>  (1) 
0000C2DF00000001

>  <PUBCHEM_MMFF94_ENERGY>  (1) 
113.397

>  <PUBCHEM_FEATURE_SELFOVERLAP>  (1) 
45.683

>  <PUBCHEM_SHAPE_FINGERPRINT>  (1) 
10165383 225 18130505362320235232
10378564 45 11097841991401942680
11443803 9 17970360411513692100
11796584 16 18113334237219495217
11963148 33 18408038503208067822
12596602 18 16343704382839234427
12616971 3 15985095315027965200
12623949 98 17916881105576390014
12892183 10 17989488498187922001
13150687 139 17825980232360770860
13402501 40 18410579478446920871
13533116 47 17775008972465066827
13583140 156 17489296430839117008
14251740 57 18201169775270586263
14294032 229 16807282494235738613
14528608 73 9079119926018193025
1454969 45 18335712667334613684
146900 427 16558745762739071058
15183329 4 14706922943500900295
15342816 4 17603584110658161220
15419008 42 18191290590976459255
15484559 13 14654334784040306347
17349148 13 17095520673551020849
1813 80 17676209087092664285
18222031 100 17967250901401903080
19438510 23 14691136250492534154
1979834 28 18272656770002312607
20028762 73 18336264621613347571
20403669 9 18333736818800619095
20511986 3 17346021351672805919
21197605 99 18200034078601824751
21315763 87 18131069381171698403
21315764 119 14707473803438128771
21623969 137 18131070432895191583
22224240 67 18059848528467337960
23557571 272 18335701594165430745
23559900 14 18334583485360937757
239999 70 18408605876955503338
2838139 119 8934712254447462631
3004659 81 17821731658330563365
312425 54 18058460820207332849
316301 35 18264770961271355038
3178227 256 17846493721989402410
338550 245 18338239396305356023
38570 142 16127523968969681680
4340502 62 17561080336570072518
463206 1 18340488988505844367
465052 167 18408602552956816670
5104073 3 17987800700710287865
5718773 13 18261671472315541282
59682541 52 12973874884732441610
59755656 215 18261111850698004155
86090 222 18201170862303903270
8988823 20 17632295696374907841
960060 61 15936412264401645653

>  <PUBCHEM_SHAPE_MULTIPOLES>  (1) 
491.67
16
2.64
1.6
17.23
1.01
0.88
8.65
4.5
-0.79
-1.06
-2.5
-0.38
2.39

>  <PUBCHEM_SHAPE_SELFOVERLAP>  (1) 
1041.942

>  <PUBCHEM_SHAPE_VOLUME>  (1) 
274

>  <PUBCHEM_COORDINATE_TYPE>  (1) 
2
5
10

$$$$
