4988
     RDKit          3D

 24 27  0  0  1  0  0  0  0  0999 V2000
   -0.8808   -1.5222    0.3826 O   0  0  0  0  0  0  0  0  0  0  0  0
   -5.4075    1.7974   -0.1343 O   0  0  0  0  0  0  0  0  0  0  0  0
   -5.3328   -0.4215    1.5127 O   0  0  0  0  0  0  0  0  0  0  0  0
    1.5087    0.5819   -0.1849 C   0  0  0  0  0  0  0  0  0  0  0  0
    2.7121   -0.4220   -0.0950 C   0  0  0  0  0  0  0  0  0  0  0  0
    0.4143   -0.0750   -1.1337 C   0  0  0  0  0  0  0  0  0  0  0  0
    4.0584    0.1249    0.5043 C   0  0  0  0  0  0  0  0  0  0  0  0
   -0.0052   -1.5291   -0.7627 C   0  0  0  0  0  0  0  0  0  0  0  0
    2.2424   -1.7586    0.5047 C   0  0  0  0  0  0  0  0  0  0  0  0
    2.0128    1.9018   -0.8350 C   0  0  0  0  0  0  0  0  0  0  0  0
    1.2069   -2.4157   -0.4035 C   0  0  0  0  0  0  0  0  0  0  0  0
    4.4035    1.4857   -0.1503 C   0  0  0  0  0  0  0  0  0  0  0  0
    3.2527    2.4829   -0.1606 C   0  0  0  0  0  0  0  0  0  0  0  0
    0.8994    0.9350    1.1971 C   0  0  0  0  0  0  0  0  0  0  0  0
   -0.8340    0.7707   -1.2500 C   0  0  0  0  0  0  0  0  0  0  0  0
    4.0746    0.2543    2.0393 C   0  0  0  0  0  0  0  0  0  0  0  0
    5.2168   -0.8451    0.1428 C   0  0  0  0  0  0  0  0  0  0  0  0
   -0.7246   -2.2489   -1.9347 C   0  0  0  0  0  0  0  0  0  0  0  0
   -1.9658    0.4580   -0.5926 C   0  0  0  0  0  0  0  0  0  0  0  0
   -2.0051   -0.7174    0.2743 C   0  0  0  0  0  0  0  0  0  0  0  0
   -3.1455    1.2972   -0.7237 C   0  0  0  0  0  0  0  0  0  0  0  0
   -3.1089   -1.0078    0.9758 C   0  0  0  0  0  0  0  0  0  0  0  0
   -4.2695    1.0269   -0.0418 C   0  0  0  0  0  0  0  0  0  0  0  0
   -4.3230   -0.1537    0.8693 C   0  0  0  0  0  0  0  0  0  0  0  0
  1  8  1  0
  1 20  1  0
  2 23  1  0
  3 24  2  0
  4  5  1  0
  4  6  1  0
  4 10  1  0
  4 14  1  0
  5  7  1  0
  5  9  1  0
  6  8  1  0
  6 15  1  0
  7 12  1  0
  7 16  1  0
  7 17  1  0
  8 11  1  0
  8 18  1  0
  9 11  1  0
 10 13  1  0
 12 13  1  0
 15 19  2  0
 19 20  1  0
 19 21  1  0
 20 22  2  0
 21 23  2  0
 22 24  1  0
 23 24  1  0
M  END
>  <PUBCHEM_COMPOUND_CID>  (1) 
4988

>  <PUBCHEM_CONFORMER_RMSD>  (1) 
0.6

>  <PUBCHEM_CONFORMER_DIVERSEORDER>  (1) 
2
4
14
6
15
17
8
22
13
20
19
10
3
5
16
18
7
1
11
21
12
9

>  <PUBCHEM_MMFF94_PARTIAL_CHARGES>  (1) 
15
1 -0.36
15 -0.29
2 -0.53
20 0.08
21 -0.15
22 -0.14
23 0.09
24 0.54
3 -0.57
40 0.15
50 0.15
51 0.15
52 0.45
6 0.14
8 0.28

>  <PUBCHEM_EFFECTIVE_ROTOR_COUNT>  (1) 
1.4

>  <PUBCHEM_PHARMACOPHORE_FEATURES>  (1) 
8
1 1 acceptor
1 2 donor
1 3 acceptor
3 7 16 17 hydrophobe
6 1 6 8 15 19 20 rings
6 19 20 21 22 23 24 rings
6 4 5 6 8 9 11 rings
6 4 5 7 10 12 13 rings

>  <PUBCHEM_HEAVY_ATOM_COUNT>  (1) 
24

>  <PUBCHEM_ATOM_DEF_STEREO_COUNT>  (1) 
0

>  <PUBCHEM_ATOM_UDEF_STEREO_COUNT>  (1) 
4

>  <PUBCHEM_BOND_DEF_STEREO_COUNT>  (1) 
0

>  <PUBCHEM_BOND_UDEF_STEREO_COUNT>  (1) 
0

>  <PUBCHEM_ISOTOPIC_ATOM_COUNT>  (1) 
0

>  <PUBCHEM_COMPONENT_COUNT>  (1) 
1

>  <PUBCHEM_CACTVS_TAUTO_COUNT>  (1) 
3

>  <PUBCHEM_CONFORMER_ID>  (1) 
0000137C00000002

>  <PUBCHEM_MMFF94_ENERGY>  (1) 
91.5064

>  <PUBCHEM_FEATURE_SELFOVERLAP>  (1) 
40.693

>  <PUBCHEM_SHAPE_FINGERPRINT>  (1) 
10493431 412 18339076107489463524
10498660 4 14261074221317376547
10863032 1 18260830431470835602
10948715 1 18410576227245822446
11045977 3 17967817141157380795
11089746 13 16988553594205865688
12011746 2 18337111159661471486
12236239 1 16415473823046529695
12251169 10 18333450949776842095
12403259 118 18409158931151469193
12507560 40 18187649132349506749
12592029 89 18408326570805492946
12633257 1 17967243187381780800
12670546 177 12103850055140453497
12670546 56 17967525822147386689
12788726 201 17340956064496388654
12892183 10 17821728372638344945
13140716 1 18336536231371380368
13544653 18 11674870108858631367
13583140 156 17169244032158135212
13675066 3 18342452668964458842
14341114 176 18113624499029757064
14790565 3 17755313605936030740
14955137 171 18335420137117376684
15196674 1 18335421291798947580
15209289 33 16443061707616322256
15295992 7 17774155833077738896
1601671 61 18335703815185502492
16945 1 18335135393143293206
17980427 23 18187368753264664629
1813 80 14490191613348178830
18222031 100 13262678170687437401
19784866 9 18412826876124278168
20261772 1 18410571816498986878
204376 136 18131353020532150135
20775530 9 14275392022810909096
21033648 29 17987498365114681608
21033650 10 14691755193486076530
21756936 100 17975983377901383596
22079108 93 17346600820054765899
22182313 1 18195238919751155534
22854114 59 18411983550684655211
23184049 59 18411134727829403140
23227448 37 18338234972014007863
23558518 356 17696178584389354182
23559900 14 18264212404642164159
2748010 2 17979057298705439734
335352 9 18410571756775672494
350125 39 18127408062942809783
4340502 62 17704083901917493343
465052 167 17967538977811646922
474 4 18341894052522340773
49207404 50 18334021605017669499
5104073 3 18186516635399525224
7164475 11 17770203170581164782
7226269 152 17775282790195675216
8272917 22 18270683056404213775
9999458 23 18333452036899375510

>  <PUBCHEM_SHAPE_MULTIPOLES>  (1) 
476.3
10.04
2.32
1.41
4.41
0.27
0.15
-3.47
3.72
-0.75
-0.68
0.13
0.25
0.14

>  <PUBCHEM_SHAPE_SELFOVERLAP>  (1) 
1028.842

>  <PUBCHEM_SHAPE_VOLUME>  (1) 
259

>  <PUBCHEM_COORDINATE_TYPE>  (1) 
2
5
10

$$$$
