49892
     RDKit          3D

 10 10  0  0  1  0  0  0  0  0999 V2000
    0.6631    2.3750    0.4596 Cl  0  0  0  0  0  0  0  0  0  0  0  0
    1.2121   -1.8023   -0.0043 S   0  0  0  0  0  0  0  0  0  0  0  0
   -3.4153   -0.5320    0.2495 N   0  0  0  0  0  0  0  0  0  0  0  0
   -2.0650   -0.3959   -0.3050 C   0  0  0  0  0  0  0  0  0  0  0  0
   -1.0319   -0.4483    0.8365 C   0  0  0  0  0  0  0  0  0  0  0  0
    0.3928   -0.3574    0.3665 C   0  0  0  0  0  0  0  0  0  0  0  0
   -2.0013    0.9093   -1.0983 C   0  0  0  0  0  0  0  0  0  0  0  0
    1.1552    0.7591    0.1870 C   0  0  0  0  0  0  0  0  0  0  0  0
    2.4622    0.4261   -0.2722 C   0  0  0  0  0  0  0  0  0  0  0  0
    2.6281   -0.9335   -0.4192 C   0  0  0  0  0  0  0  0  0  0  0  0
  1  8  1  0
  2  6  1  0
  2 10  1  0
  3  4  1  0
  4  5  1  0
  4  7  1  0
  5  6  1  0
  6  8  2  0
  8  9  1  0
  9 10  2  0
M  END
>  <PUBCHEM_COMPOUND_CID>  (1) 
49892

>  <PUBCHEM_CONFORMER_RMSD>  (1) 
0.4

>  <PUBCHEM_CONFORMER_DIVERSEORDER>  (1) 
3
9
7
1
12
5
2
8
11
4
6
10

>  <PUBCHEM_MMFF94_PARTIAL_CHARGES>  (1) 
13
1 -0.12
10 -0.11
17 0.36
18 0.36
19 0.15
2 -0.08
20 0.15
3 -0.99
4 0.27
5 0.18
6 -0.14
8 0.12
9 -0.15

>  <PUBCHEM_EFFECTIVE_ROTOR_COUNT>  (1) 
2

>  <PUBCHEM_PHARMACOPHORE_FEATURES>  (1) 
3
1 3 cation
1 3 donor
5 2 6 8 9 10 rings

>  <PUBCHEM_HEAVY_ATOM_COUNT>  (1) 
10

>  <PUBCHEM_ATOM_DEF_STEREO_COUNT>  (1) 
0

>  <PUBCHEM_ATOM_UDEF_STEREO_COUNT>  (1) 
1

>  <PUBCHEM_BOND_DEF_STEREO_COUNT>  (1) 
0

>  <PUBCHEM_BOND_UDEF_STEREO_COUNT>  (1) 
0

>  <PUBCHEM_ISOTOPIC_ATOM_COUNT>  (1) 
0

>  <PUBCHEM_COMPONENT_COUNT>  (1) 
1

>  <PUBCHEM_CACTVS_TAUTO_COUNT>  (1) 
1

>  <PUBCHEM_CONFORMER_ID>  (1) 
0000C2E400000003

>  <PUBCHEM_MMFF94_ENERGY>  (1) 
2.8524

>  <PUBCHEM_FEATURE_SELFOVERLAP>  (1) 
15.223

>  <PUBCHEM_SHAPE_FINGERPRINT>  (1) 
10857977 72 17168706470146712651
12897270 3 18334572451748001951
12932764 1 18260259763783190099
15775835 57 18340210811551736119
16945 1 18411410743564985734
17844478 74 17967828132305829777
20201158 50 18335138678576905571
20653085 51 16227193408845737998
21040471 1 18050005785979251914
21293036 1 18410585006533476566
22802520 49 18042680598654072021
23552423 10 18117847603112184946
2748010 2 18339356366636988620
29004967 10 18341894073886401018
5084963 1 17894630370152576229

>  <PUBCHEM_SHAPE_MULTIPOLES>  (1) 
206.53
4.08
1.93
0.89
2.06
0.85
0.07
-0.92
0.66
-0.75
-0.2
0.25
0.09
0.38

>  <PUBCHEM_SHAPE_SELFOVERLAP>  (1) 
393.362

>  <PUBCHEM_SHAPE_VOLUME>  (1) 
129.6

>  <PUBCHEM_COORDINATE_TYPE>  (1) 
2
5
10

$$$$
