49898
     RDKit          3D

 11 11  0  0  1  0  0  0  0  0999 V2000
    2.9773    1.9368    0.0501 Cl  0  0  0  0  0  0  0  0  0  0  0  0
    3.4757   -1.4156   -0.6261 Cl  0  0  0  0  0  0  0  0  0  0  0  0
    0.6018   -1.5772    0.0592 S   0  0  0  0  0  0  0  0  0  0  0  0
   -4.0656   -0.3960    0.0506 N   0  0  0  0  0  0  0  0  0  0  0  0
   -2.6768   -0.1899   -0.3709 C   0  0  0  0  0  0  0  0  0  0  0  0
   -1.7412   -0.3495    0.8425 C   0  0  0  0  0  0  0  0  0  0  0  0
   -0.2843   -0.1963    0.5064 C   0  0  0  0  0  0  0  0  0  0  0  0
   -2.5717    1.1908   -1.0187 C   0  0  0  0  0  0  0  0  0  0  0  0
    0.4562    0.9476    0.5113 C   0  0  0  0  0  0  0  0  0  0  0  0
    1.8061    0.6910    0.1344 C   0  0  0  0  0  0  0  0  0  0  0  0
    2.0224   -0.6418   -0.1388 C   0  0  0  0  0  0  0  0  0  0  0  0
  1 10  1  0
  2 11  1  0
  3  7  1  0
  3 11  1  0
  4  5  1  0
  5  6  1  0
  5  8  1  0
  6  7  1  0
  7  9  2  0
  9 10  1  0
 10 11  2  0
M  END
>  <PUBCHEM_COMPOUND_CID>  (1) 
49898

>  <PUBCHEM_CONFORMER_RMSD>  (1) 
0.4

>  <PUBCHEM_CONFORMER_DIVERSEORDER>  (1) 
4
26
10
19
15
3
20
21
18
11
7
14
23
22
12
8
13
1
25
5
24
17
16
2
9
6

>  <PUBCHEM_MMFF94_PARTIAL_CHARGES>  (1) 
13
1 -0.12
10 0.12
11 0.16
18 0.15
19 0.36
2 -0.12
20 0.36
3 -0.08
4 -0.99
5 0.27
6 0.18
7 -0.14
9 -0.15

>  <PUBCHEM_EFFECTIVE_ROTOR_COUNT>  (1) 
2

>  <PUBCHEM_PHARMACOPHORE_FEATURES>  (1) 
3
1 4 cation
1 4 donor
5 3 7 9 10 11 rings

>  <PUBCHEM_HEAVY_ATOM_COUNT>  (1) 
11

>  <PUBCHEM_ATOM_DEF_STEREO_COUNT>  (1) 
0

>  <PUBCHEM_ATOM_UDEF_STEREO_COUNT>  (1) 
1

>  <PUBCHEM_BOND_DEF_STEREO_COUNT>  (1) 
0

>  <PUBCHEM_BOND_UDEF_STEREO_COUNT>  (1) 
0

>  <PUBCHEM_ISOTOPIC_ATOM_COUNT>  (1) 
0

>  <PUBCHEM_COMPONENT_COUNT>  (1) 
1

>  <PUBCHEM_CACTVS_TAUTO_COUNT>  (1) 
1

>  <PUBCHEM_CONFORMER_ID>  (1) 
0000C2EA00000004

>  <PUBCHEM_MMFF94_ENERGY>  (1) 
1.3548

>  <PUBCHEM_FEATURE_SELFOVERLAP>  (1) 
15.223

>  <PUBCHEM_SHAPE_FINGERPRINT>  (1) 
10608611 8 18333725810630777349
11206711 2 18193005824388227164
12897270 3 18335697217862417733
12932764 1 18040152894547132595
13380535 76 18268145538708342730
14325111 11 18410572915889262817
14897335 6 18199185264604440680
15219456 202 18407757040682638013
15310529 11 18272365386847046061
15477762 27 18272935990379727262
15775835 57 18271806890584735293
16945 1 18339086977856660482
17844478 74 18114472214447838505
18186145 218 18334856082713866529
19422 9 17846221063968464711
20201158 50 18337955588723260935
20645477 70 18343864407434922063
20653085 51 18335140852152195321
20671657 53 18270407066554466086
20715346 28 18114754840032711930
21293036 1 18409454661172153526
22802520 49 18190174598973787237
23402539 116 17677878205857105127
23402655 69 18341888593866918557
23557571 272 17605287369932866569
2748010 2 18267037230882341722
63268167 104 18272934955049600048

>  <PUBCHEM_SHAPE_MULTIPOLES>  (1) 
228.98
6.02
1.77
0.88
2.57
0.31
0.05
-0.02
1.24
-1.62
0.15
0.24
0.05
0.67

>  <PUBCHEM_SHAPE_SELFOVERLAP>  (1) 
430.818

>  <PUBCHEM_SHAPE_VOLUME>  (1) 
144.8

>  <PUBCHEM_COORDINATE_TYPE>  (1) 
2
5
10

$$$$
