49909
     RDKit          3D

 22 23  0  0  0  0  0  0  0  0999 V2000
   -1.7908    0.6973   -2.6644 Cl  0  0  0  0  0  0  0  0  0  0  0  0
   -3.4691   -0.9248    2.2626 Cl  0  0  0  0  0  0  0  0  0  0  0  0
    5.3532    0.9664   -0.4191 O   0  0  0  0  0  0  0  0  0  0  0  0
   -0.0064   -2.4928   -0.1243 N   0  0  0  0  0  0  0  0  0  0  0  0
    0.0434   -0.2858    0.6593 N   0  0  0  0  0  0  0  0  0  0  0  0
   -1.9687   -1.1988   -0.3331 N   0  0  0  0  0  0  0  0  0  0  0  0
   -0.7174   -1.2902    0.0660 C   0  0  0  0  0  0  0  0  0  0  0  0
    1.3909    0.0319    0.3861 C   0  0  0  0  0  0  0  0  0  0  0  0
    2.1268    0.7892    1.2967 C   0  0  0  0  0  0  0  0  0  0  0  0
    1.9851   -0.4113   -0.7951 C   0  0  0  0  0  0  0  0  0  0  0  0
   -2.6978   -0.0056   -0.1885 C   0  0  0  0  0  0  0  0  0  0  0  0
    1.0626   -2.9419    0.7652 C   0  0  0  0  0  0  0  0  0  0  0  0
   -0.3729   -3.4195   -1.1935 C   0  0  0  0  0  0  0  0  0  0  0  0
    4.0535    0.6609   -0.1555 C   0  0  0  0  0  0  0  0  0  0  0  0
    3.4584    1.1039    1.0258 C   0  0  0  0  0  0  0  0  0  0  0  0
    3.3168   -0.0968   -1.0660 C   0  0  0  0  0  0  0  0  0  0  0  0
   -2.6845    0.9458   -1.2073 C   0  0  0  0  0  0  0  0  0  0  0  0
   -3.4314    0.2253    0.9745 C   0  0  0  0  0  0  0  0  0  0  0  0
   -3.4064    2.1307   -1.0631 C   0  0  0  0  0  0  0  0  0  0  0  0
   -4.1531    1.4103    1.1185 C   0  0  0  0  0  0  0  0  0  0  0  0
   -4.1407    2.3629    0.0997 C   0  0  0  0  0  0  0  0  0  0  0  0
    6.0484    1.7430    0.5553 C   0  0  0  0  0  0  0  0  0  0  0  0
  1 17  1  0
  2 18  1  0
  3 14  1  0
  3 22  1  0
  4  7  1  0
  4 12  1  0
  4 13  1  0
  5  7  1  0
  5  8  1  0
  6  7  2  0
  6 11  1  0
  8  9  2  0
  8 10  1  0
  9 15  1  0
 10 16  2  0
 11 17  2  0
 11 18  1  0
 14 15  2  0
 14 16  1  0
 17 19  1  0
 18 20  2  0
 19 21  2  0
 20 21  1  0
M  END
>  <PUBCHEM_COMPOUND_CID>  (1) 
49909

>  <PUBCHEM_CONFORMER_RMSD>  (1) 
0.8

>  <PUBCHEM_CONFORMER_DIVERSEORDER>  (1) 
3
4
2
6
7
1
5

>  <PUBCHEM_MMFF94_PARTIAL_CHARGES>  (1) 
30
1 -0.18
10 -0.15
11 0.18
12 0.37
13 0.37
14 0.08
15 -0.15
16 -0.15
17 0.18
18 0.18
19 -0.15
2 -0.18
20 -0.15
21 -0.15
22 0.28
23 0.4
24 0.15
25 0.15
3 -0.36
32 0.15
33 0.15
34 0.15
35 0.15
36 0.15
4 -0.79
5 -0.55
6 -0.63
7 0.55
8 0.1
9 -0.15

>  <PUBCHEM_EFFECTIVE_ROTOR_COUNT>  (1) 
5

>  <PUBCHEM_PHARMACOPHORE_FEATURES>  (1) 
5
1 3 acceptor
1 5 donor
4 4 5 6 7 cation
6 11 17 18 19 20 21 rings
6 8 9 10 14 15 16 rings

>  <PUBCHEM_HEAVY_ATOM_COUNT>  (1) 
22

>  <PUBCHEM_ATOM_DEF_STEREO_COUNT>  (1) 
0

>  <PUBCHEM_ATOM_UDEF_STEREO_COUNT>  (1) 
0

>  <PUBCHEM_BOND_DEF_STEREO_COUNT>  (1) 
0

>  <PUBCHEM_BOND_UDEF_STEREO_COUNT>  (1) 
0

>  <PUBCHEM_ISOTOPIC_ATOM_COUNT>  (1) 
0

>  <PUBCHEM_COMPONENT_COUNT>  (1) 
1

>  <PUBCHEM_CACTVS_TAUTO_COUNT>  (1) 
2

>  <PUBCHEM_CONFORMER_ID>  (1) 
0000C2F500000003

>  <PUBCHEM_MMFF94_ENERGY>  (1) 
91.5926

>  <PUBCHEM_FEATURE_SELFOVERLAP>  (1) 
25.371

>  <PUBCHEM_SHAPE_FINGERPRINT>  (1) 
10165383 225 18341059561904416097
10498660 4 18339914935945814293
105312 117 18341895216664109228
11315181 36 10952057758240480448
12403259 415 18339375097231972550
12422481 6 17605810574976518250
12500047 106 18271241729155815934
12553582 1 11312064248367190983
12892183 10 16153699904267179808
13544653 18 8214138560299318238
14856354 85 16515693277474522514
17870717 6 11887957644429328865
1813 80 11747224506701512818
18186145 218 18059859462900120514
18219364 16 18341897402707712345
18222031 100 7997679883813946976
19784866 34 18343019952117862576
200 152 14476969999446852072
20645477 56 18341055228350797712
20671657 53 10087628313046386223
21033648 29 18341607144481086256
21120745 212 17469342773027659142
23402539 116 18202278113594062776
23402655 69 17132117931378143680
23559900 14 17170693068662705663
25 1 18131352986024614526
27216 239 18333450950220135753
59755656 520 18201722872468543358
633830 44 17988369156558555020
7226269 152 18131064940386336112
7808743 9 18336548338868571412
81228 2 17763175139316593443
90316 7 16443068266522065237
9862522 239 18041263414154807582
9925002 15 17688328089011620175

>  <PUBCHEM_SHAPE_MULTIPOLES>  (1) 
435.68
10.07
2.9
1.82
10.04
2.4
0.37
-8.78
-2.14
-0.71
0.36
-1.54
-0.04
1

>  <PUBCHEM_SHAPE_SELFOVERLAP>  (1) 
900.745

>  <PUBCHEM_SHAPE_VOLUME>  (1) 
252.4

>  <PUBCHEM_COORDINATE_TYPE>  (1) 
2
5
10

$$$$
