49917
     RDKit          3D

 22 23  0  0  1  0  0  0  0  0999 V2000
    6.5481    1.8908   -0.5180 O   0  0  0  0  0  0  0  0  0  0  0  0
    0.7110   -0.5640   -0.0891 N   0  0  0  0  0  0  0  0  0  0  0  0
    1.8210   -0.9953    0.7688 C   0  0  0  0  0  0  0  0  0  0  0  0
    1.9896   -2.5199    0.6719 C   0  0  0  0  0  0  0  0  0  0  0  0
    2.6806   -2.9294   -0.6244 C   0  0  0  0  0  0  0  0  0  0  0  0
    3.1014   -0.2568    0.4274 C   0  0  0  0  0  0  0  0  0  0  0  0
    4.0818   -2.3282   -0.6932 C   0  0  0  0  0  0  0  0  0  0  0  0
    4.1407   -0.8740   -0.2957 C   0  0  0  0  0  0  0  0  0  0  0  0
   -0.5730   -0.9026    0.5118 C   0  0  0  0  0  0  0  0  0  0  0  0
   -1.7259   -0.1216   -0.1222 C   0  0  0  0  0  0  0  0  0  0  0  0
   -3.1222   -0.4588    0.4141 C   0  0  0  0  0  0  0  0  0  0  0  0
    3.2412    1.0873    0.8149 C   0  0  0  0  0  0  0  0  0  0  0  0
   -4.2450    0.3028   -0.2936 C   0  0  0  0  0  0  0  0  0  0  0  0
    5.2982   -0.1402   -0.6009 C   0  0  0  0  0  0  0  0  0  0  0  0
   -5.6148   -0.0750    0.2751 C   0  0  0  0  0  0  0  0  0  0  0  0
   -6.7421    0.6615   -0.4524 C   0  0  0  0  0  0  0  0  0  0  0  0
    5.4209    1.1929   -0.2112 C   0  0  0  0  0  0  0  0  0  0  0  0
    4.3927    1.8064    0.4967 C   0  0  0  0  0  0  0  0  0  0  0  0
   -8.1079    0.3065    0.1395 C   0  0  0  0  0  0  0  0  0  0  0  0
   -9.2742    0.9992   -0.5687 C   0  0  0  0  0  0  0  0  0  0  0  0
  -10.6318    0.6699    0.0323 C   0  0  0  0  0  0  0  0  0  0  0  0
    6.6099    3.2485   -0.0832 C   0  0  0  0  0  0  0  0  0  0  0  0
  1 17  1  0
  1 22  1  0
  2  3  1  0
  2  9  1  0
  3  4  1  0
  3  6  1  0
  4  5  1  0
  5  7  1  0
  6  8  2  0
  6 12  1  0
  7  8  1  0
  8 14  1  0
  9 10  1  0
 10 11  1  0
 11 13  1  0
 12 18  2  0
 13 15  1  0
 14 17  2  0
 15 16  1  0
 16 19  1  0
 17 18  1  0
 19 20  1  0
 20 21  1  0
M  END
>  <PUBCHEM_COMPOUND_CID>  (1) 
49917

>  <PUBCHEM_CONFORMER_RMSD>  (1) 
1.2

>  <PUBCHEM_CONFORMER_DIVERSEORDER>  (1) 
1
73
17
74
72
76
31
62
34
23
24
8
65
60
4
45
59
63
54
19
61
82
2
55
68
13
15
56
41
14
48
20
3
26
81
27
49
42
52
32
21
70
47
79
53
46
75
64
38
12
57
37
22
29
71
77
40
51
11
28
39
30
7
33
50
44
58
69
36
80
35
10
18
78
66
43
6
5
16
67
9
25

>  <PUBCHEM_MMFF94_PARTIAL_CHARGES>  (1) 
16
1 -0.36
12 -0.15
14 -0.15
17 0.08
18 -0.15
2 -0.9
22 0.28
3 0.41
30 0.36
39 0.15
40 0.15
45 0.15
6 -0.14
7 0.14
8 -0.14
9 0.27

>  <PUBCHEM_EFFECTIVE_ROTOR_COUNT>  (1) 
10.8

>  <PUBCHEM_PHARMACOPHORE_FEATURES>  (1) 
6
1 1 acceptor
1 2 cation
1 2 donor
1 21 hydrophobe
6 3 4 5 6 7 8 rings
6 6 8 12 14 17 18 rings

>  <PUBCHEM_HEAVY_ATOM_COUNT>  (1) 
22

>  <PUBCHEM_ATOM_DEF_STEREO_COUNT>  (1) 
0

>  <PUBCHEM_ATOM_UDEF_STEREO_COUNT>  (1) 
1

>  <PUBCHEM_BOND_DEF_STEREO_COUNT>  (1) 
0

>  <PUBCHEM_BOND_UDEF_STEREO_COUNT>  (1) 
0

>  <PUBCHEM_ISOTOPIC_ATOM_COUNT>  (1) 
0

>  <PUBCHEM_COMPONENT_COUNT>  (1) 
1

>  <PUBCHEM_CACTVS_TAUTO_COUNT>  (1) 
1

>  <PUBCHEM_CONFORMER_ID>  (1) 
0000C2FD00000001

>  <PUBCHEM_MMFF94_ENERGY>  (1) 
33.892

>  <PUBCHEM_FEATURE_SELFOVERLAP>  (1) 
30.466

>  <PUBCHEM_SHAPE_FINGERPRINT>  (1) 
10 15 17676204680814706441
10165383 225 18408323315895561260
10299344 5 17775564218360027887
10411042 1 17979074882856495870
10835480 77 18408888451723410291
11181472 205 17631179589827151481
11211813 74 18410290299090048597
11638347 137 15502367907390931305
12730499 353 18409737270257873682
13533116 47 18201998781584512763
13885169 127 10159705690669199659
14142895 15 18411698829493351911
14461889 52 17822017540323846827
14617042 71 18334861649472309901
14933364 13 18411418389566803465
15183329 4 16988847177106872833
15690457 1 8574714590188843873
20157964 124 18411982442588601419
20554085 129 16443062794870847801
20721686 124 18271812311673182062
20812841 46 18040990727583212842
21150785 3 17989204842089907143
220451 1 17632289069905222799
221357 26 18272089366399933472
22224240 67 17385723595966305075
23424782 7 18335143124823183635
23522609 53 17416990377664903385
255183 451 17628929932606678598
28498 318 11095885961081142905
33532 11 9871747992868484733
335352 9 18341339929708089830
34797466 226 18341896256014760711
4073 2 18333734645922214283
444735 82 18259706688165720437
445580 126 18411692206395500696
58260988 393 15285624492001929612
59682541 35 17530969103539007121
59682541 52 17560816415984401692
6025842 7 18272371941078494350
6327066 14 18266462204013815948
6438161 24 12175625057404828325
67123 10 18410573986607347703

>  <PUBCHEM_SHAPE_MULTIPOLES>  (1) 
441.9
28.2
2.68
0.83
86.19
0.08
0.03
-18.27
-4.19
-7.68
-0.23
-0.3
0.11
0.6

>  <PUBCHEM_SHAPE_SELFOVERLAP>  (1) 
879.701

>  <PUBCHEM_SHAPE_VOLUME>  (1) 
261.7

>  <PUBCHEM_COORDINATE_TYPE>  (1) 
2
5
10

$$$$
