49921
     RDKit          3D

 17 19  0  0  1  0  0  0  0  0999 V2000
    2.3191   -2.1242   -0.7310 O   0  0  0  0  0  0  0  0  0  0  0  0
   -2.1927    0.4481    0.6903 N   0  0  0  0  0  0  0  0  0  0  0  0
   -3.3924   -0.2510    0.2606 C   0  0  0  0  0  0  0  0  0  0  0  0
   -1.5940    1.1846   -0.4302 C   0  0  0  0  0  0  0  0  0  0  0  0
   -4.1840   -1.0763    1.2403 C   0  0  0  0  0  0  0  0  0  0  0  0
   -3.4008   -1.7533    0.1541 C   0  0  0  0  0  0  0  0  0  0  0  0
   -0.3576    1.9942    0.0299 C   0  0  0  0  0  0  0  0  0  0  0  0
   -1.2250    0.2218   -1.5642 C   0  0  0  0  0  0  0  0  0  0  0  0
   -0.1221   -0.7598   -1.1697 C   0  0  0  0  0  0  0  0  0  0  0  0
    0.8785    1.1307    0.2228 C   0  0  0  0  0  0  0  0  0  0  0  0
    0.9987   -0.1378   -0.3757 C   0  0  0  0  0  0  0  0  0  0  0  0
   -0.0432    3.1208   -0.9678 C   0  0  0  0  0  0  0  0  0  0  0  0
    1.9418    1.6243    0.9990 C   0  0  0  0  0  0  0  0  0  0  0  0
    2.1718   -0.8845   -0.1782 C   0  0  0  0  0  0  0  0  0  0  0  0
    3.1034    0.8749    1.1805 C   0  0  0  0  0  0  0  0  0  0  0  0
    3.2188   -0.3791    0.5911 C   0  0  0  0  0  0  0  0  0  0  0  0
    1.8797   -3.2333    0.0482 C   0  0  0  0  0  0  0  0  0  0  0  0
  1 14  1  0
  1 17  1  0
  2  3  1  0
  2  4  1  0
  3  5  1  0
  3  6  1  0
  4  7  1  0
  4  8  1  0
  5  6  1  0
  7 10  1  0
  7 12  1  0
  8  9  1  0
  9 11  1  0
 10 11  2  0
 10 13  1  0
 11 14  1  0
 13 15  2  0
 14 16  2  0
 15 16  1  0
M  END
>  <PUBCHEM_COMPOUND_CID>  (1) 
49921

>  <PUBCHEM_CONFORMER_RMSD>  (1) 
0.6

>  <PUBCHEM_CONFORMER_DIVERSEORDER>  (1) 
4
19
15
17
2
14
20
9
16
8
7
5
6
10
13
12
1
18
3
11

>  <PUBCHEM_MMFF94_PARTIAL_CHARGES>  (1) 
24
1 -0.36
10 -0.14
11 -0.14
13 -0.15
14 0.08
15 -0.15
16 -0.15
17 0.28
18 0.1
2 -0.79
20 0.1
21 0.1
22 0.1
23 0.1
24 0.36
3 0.06
33 0.15
34 0.15
35 0.15
4 0.27
5 -0.2
6 -0.2
7 0.14
9 0.14

>  <PUBCHEM_EFFECTIVE_ROTOR_COUNT>  (1) 
4.4

>  <PUBCHEM_PHARMACOPHORE_FEATURES>  (1) 
5
1 1 acceptor
1 2 cation
1 2 donor
6 10 11 13 14 15 16 rings
6 4 7 8 9 10 11 rings

>  <PUBCHEM_HEAVY_ATOM_COUNT>  (1) 
17

>  <PUBCHEM_ATOM_DEF_STEREO_COUNT>  (1) 
0

>  <PUBCHEM_ATOM_UDEF_STEREO_COUNT>  (1) 
2

>  <PUBCHEM_BOND_DEF_STEREO_COUNT>  (1) 
0

>  <PUBCHEM_BOND_UDEF_STEREO_COUNT>  (1) 
0

>  <PUBCHEM_ISOTOPIC_ATOM_COUNT>  (1) 
0

>  <PUBCHEM_COMPONENT_COUNT>  (1) 
1

>  <PUBCHEM_CACTVS_TAUTO_COUNT>  (1) 
1

>  <PUBCHEM_CONFORMER_ID>  (1) 
0000C30100000004

>  <PUBCHEM_MMFF94_ENERGY>  (1) 
51.2701

>  <PUBCHEM_FEATURE_SELFOVERLAP>  (1) 
25.392

>  <PUBCHEM_SHAPE_FINGERPRINT>  (1) 
10064457 181 17843402036113426698
10493431 412 17838330036435836360
11067466 332 18336272314094245430
11471102 22 18342740727772632371
12202030 40 17823411596139209526
12251169 10 18130792286860857643
12400797 245 18342178881741850703
12400797 292 11098123496654349363
12553582 1 18335431204889590831
13140716 1 18126829707162938674
14178342 30 18198058282192234019
14223421 5 18339636720643000770
14252887 29 18409173229071061811
14790565 3 17977951511835967100
15422964 175 18408322164026453295
16945 1 18130208428922444772
17134986 127 9943527362918881595
17844478 74 18411694361920586516
18186145 218 8358261457920331893
19049666 15 18121489163963679436
20645477 70 17972031703067191835
20671657 53 16153429462871483855
20681677 274 18264482889092898714
20739085 24 18336548342799795248
20871998 22 18408890624512729041
21665056 4 17181091029313299373
2334 1 17984123869692541348
23559900 14 18189894210739671526
2748010 2 17841414948425134708
31174 14 18272933799587378682
568465 68 18270677700548327984
598444 67 17761777256426354069
81228 2 18043251241152967629
8809292 202 17763744291239024750

>  <PUBCHEM_SHAPE_MULTIPOLES>  (1) 
339
5.83
3
1.23
4.21
0.41
-0.09
2.93
2.66
-1.26
-0.5
0.17
-0.14
0.92

>  <PUBCHEM_SHAPE_SELFOVERLAP>  (1) 
711.318

>  <PUBCHEM_SHAPE_VOLUME>  (1) 
191.8

>  <PUBCHEM_COORDINATE_TYPE>  (1) 
2
5
10

$$$$
