49923
     RDKit          3D

 18 20  0  0  0  0  0  0  0  0999 V2000
   -0.3830    2.9780    0.0001 Cl  0  0  0  0  0  0  0  0  0  0  0  0
   -2.5997   -2.8909    0.0005 Cl  0  0  0  0  0  0  0  0  0  0  0  0
   -3.5433    2.5068   -0.0002 Cl  0  0  0  0  0  0  0  0  0  0  0  0
   -4.6542   -0.4399   -0.0002 Cl  0  0  0  0  0  0  0  0  0  0  0  0
    5.0111    1.5116    0.0003 Cl  0  0  0  0  0  0  0  0  0  0  0  0
    0.2923   -1.8955    0.0000 O   0  0  0  0  0  0  0  0  0  0  0  0
   -0.1751    0.3171    0.0000 C   0  0  0  0  0  0  0  0  0  0  0  0
    1.2415    0.1571    0.0000 C   0  0  0  0  0  0  0  0  0  0  0  0
   -0.7061   -0.9690    0.0000 C   0  0  0  0  0  0  0  0  0  0  0  0
    1.4723   -1.2149   -0.0001 C   0  0  0  0  0  0  0  0  0  0  0  0
   -1.0642    1.4078    0.0002 C   0  0  0  0  0  0  0  0  0  0  0  0
   -2.0711   -1.2513    0.0001 C   0  0  0  0  0  0  0  0  0  0  0  0
    2.3514    1.0221    0.0001 C   0  0  0  0  0  0  0  0  0  0  0  0
    2.7398   -1.7946   -0.0004 C   0  0  0  0  0  0  0  0  0  0  0  0
   -2.4426    1.1551   -0.0001 C   0  0  0  0  0  0  0  0  0  0  0  0
   -2.9347   -0.1521    0.0001 C   0  0  0  0  0  0  0  0  0  0  0  0
    3.6387    0.4682    0.0002 C   0  0  0  0  0  0  0  0  0  0  0  0
    3.8269   -0.9157   -0.0003 C   0  0  0  0  0  0  0  0  0  0  0  0
  1 11  1  0
  2 12  1  0
  3 15  1  0
  4 16  1  0
  5 17  1  0
  6  9  1  0
  6 10  1  0
  7  8  1  0
  7  9  2  0
  7 11  1  0
  8 10  2  0
  8 13  1  0
  9 12  1  0
 10 14  1  0
 11 15  2  0
 12 16  2  0
 13 17  2  0
 14 18  2  0
 15 16  1  0
 17 18  1  0
M  END
>  <PUBCHEM_COMPOUND_CID>  (1) 
49923

>  <PUBCHEM_CONFORMER_RMSD>  (1) 
0.4

>  <PUBCHEM_CONFORMER_DIVERSEORDER>  (1) 
1

>  <PUBCHEM_MMFF94_PARTIAL_CHARGES>  (1) 
19
1 -0.18
10 0.14
11 0.18
12 0.18
13 -0.15
14 -0.15
15 0.18
16 0.18
17 0.18
18 -0.15
19 0.15
2 -0.18
20 0.15
21 0.15
3 -0.18
4 -0.18
5 -0.18
6 -0.28
9 0.14

>  <PUBCHEM_EFFECTIVE_ROTOR_COUNT>  (1) 
0

>  <PUBCHEM_PHARMACOPHORE_FEATURES>  (1) 
4
1 6 acceptor
5 6 7 8 9 10 rings
6 7 9 11 12 15 16 rings
6 8 10 13 14 17 18 rings

>  <PUBCHEM_HEAVY_ATOM_COUNT>  (1) 
18

>  <PUBCHEM_ATOM_DEF_STEREO_COUNT>  (1) 
0

>  <PUBCHEM_ATOM_UDEF_STEREO_COUNT>  (1) 
0

>  <PUBCHEM_BOND_DEF_STEREO_COUNT>  (1) 
0

>  <PUBCHEM_BOND_UDEF_STEREO_COUNT>  (1) 
0

>  <PUBCHEM_ISOTOPIC_ATOM_COUNT>  (1) 
0

>  <PUBCHEM_COMPONENT_COUNT>  (1) 
1

>  <PUBCHEM_CACTVS_TAUTO_COUNT>  (1) 
1

>  <PUBCHEM_CONFORMER_ID>  (1) 
0000C30300000001

>  <PUBCHEM_MMFF94_ENERGY>  (1) 
39.5631

>  <PUBCHEM_FEATURE_SELFOVERLAP>  (1) 
20.499

>  <PUBCHEM_SHAPE_FINGERPRINT>  (1) 
10411042 1 17906172111314078179
10493431 412 18269564858049505369
10498660 4 18409731716553904020
10608611 8 18411697656297522648
10616163 171 18339645636958534894
10967382 1 18410856568229802119
11132069 177 18410007766812352728
12390115 104 18200612297369328281
12403814 3 17676203567964678197
13140716 1 18264770965122665283
13214271 11 18341610481343230950
14787075 74 17825953894661130266
14790565 3 17981049613686344665
15196674 1 18410856521032771044
15442244 35 18193274083882722482
15536298 74 18341614793954450718
16945 1 18122624955243677091
17492 89 18337108956164679954
18186145 218 18197500632017166964
19591789 44 18338518526192596627
200 152 17988920072113787631
20510252 161 18342740667907016465
20645477 70 17131845226882784254
21029758 11 18341607131843876173
21267235 1 18410302388673796550
21501502 16 18410570648241625426
2334 1 18410575119033412258
23402539 116 18341324608330636710
23463225 33 18408604751462997118
23557571 272 18272379667571152900
23559900 14 18198901419059451338
238 59 15876705153640106877
2748010 2 18412544331468615014
335352 9 18122343467455872542
34934 24 18410005567879112115
350125 39 18338520862211979824
3545911 37 18410576206097897164
4214541 1 18410856529902137572
4340502 62 16660366953048460675
474 4 17531536485497738420
5104073 3 18337391543642584536
58051976 378 18411982502839229332
69090 78 18411979144233111631
7097593 13 17682102297624490386
8809292 202 18334579078893433555
9709674 26 18341898446131895254

>  <PUBCHEM_SHAPE_MULTIPOLES>  (1) 
373.91
8.19
3.02
0.62
3.66
0.45
0
1.15
0
-1.67
0
-0.01
0.02
0

>  <PUBCHEM_SHAPE_SELFOVERLAP>  (1) 
794.35

>  <PUBCHEM_SHAPE_VOLUME>  (1) 
214.8

>  <PUBCHEM_COORDINATE_TYPE>  (1) 
2
5
10

$$$$
