4992
     RDKit          3D

 21 22  0  0  1  0  0  0  0  0999 V2000
   -5.2816    0.1614   -0.8048 O   0  0  0  0  0  0  0  0  0  0  0  0
    0.8870    0.0999    0.6152 N   0  0  0  0  0  0  0  0  0  0  0  0
    3.4993    2.6841   -0.0428 N   0  0  0  0  0  0  0  0  0  0  0  0
    1.3372   -2.2089    0.9936 N   0  0  0  0  0  0  0  0  0  0  0  0
    1.4489    1.3519    0.1205 C   0  0  0  0  0  0  0  0  0  0  0  0
    2.9319    1.4370    0.4687 C   0  0  0  0  0  0  0  0  0  0  0  0
   -0.1799    0.1714    1.6043 C   0  0  0  0  0  0  0  0  0  0  0  0
   -1.5415    0.1688    0.9617 C   0  0  0  0  0  0  0  0  0  0  0  0
    1.3675   -1.1283    0.1633 C   0  0  0  0  0  0  0  0  0  0  0  0
   -2.1851   -1.0385    0.7297 C   0  0  0  0  0  0  0  0  0  0  0  0
   -2.1329    1.3740    0.6101 C   0  0  0  0  0  0  0  0  0  0  0  0
    3.3236    2.7688   -1.4922 C   0  0  0  0  0  0  0  0  0  0  0  0
    4.9158    2.7827    0.3071 C   0  0  0  0  0  0  0  0  0  0  0  0
    1.8661   -1.2000   -1.1389 C   0  0  0  0  0  0  0  0  0  0  0  0
   -3.4463   -1.0406    0.1336 C   0  0  0  0  0  0  0  0  0  0  0  0
   -3.3939    1.3718    0.0142 C   0  0  0  0  0  0  0  0  0  0  0  0
   -4.0507    0.1645   -0.2241 C   0  0  0  0  0  0  0  0  0  0  0  0
    2.3487   -2.4183   -1.6039 C   0  0  0  0  0  0  0  0  0  0  0  0
    1.8150   -3.3761    0.5067 C   0  0  0  0  0  0  0  0  0  0  0  0
    2.3263   -3.5320   -0.7716 C   0  0  0  0  0  0  0  0  0  0  0  0
   -5.8554    1.4063   -1.1506 C   0  0  0  0  0  0  0  0  0  0  0  0
  1 17  1  0
  1 21  1  0
  2  5  1  0
  2  7  1  0
  2  9  1  0
  3  6  1  0
  3 12  1  0
  3 13  1  0
  4  9  2  0
  4 19  1  0
  5  6  1  0
  7  8  1  0
  8 10  2  0
  8 11  1  0
  9 14  1  0
 10 15  1  0
 11 16  2  0
 14 18  2  0
 15 17  2  0
 16 17  1  0
 18 20  1  0
 19 20  2  0
M  END
>  <PUBCHEM_COMPOUND_CID>  (1) 
4992

>  <PUBCHEM_CONFORMER_RMSD>  (1) 
0.8

>  <PUBCHEM_CONFORMER_DIVERSEORDER>  (1) 
1
72
158
155
84
154
167
131
106
58
115
111
77
138
174
99
33
165
107
182
151
20
128
173
166
116
176
123
142
27
70
102
105
43
127
163
71
82
184
139
150
180
121
57
86
110
134
133
66
95
47
147
83
109
69
125
48
39
28
62
68
137
186
149
50
143
103
76
187
114
146
26
181
14
98
129
170
10
25
60
120
51
40
164
159
177
124
135
74
172
183
93
36
130
140
118
160
101
144
112
65
55
119
156
126
67
152
92
37
31
5
81
122
78
30
113
108
46
56
136
73
179
161
8
45
97
61
59
21
100
175
34
153
178
80
87
148
23
169
96
11
42
145
75
88
7
49
94
63
157
53
117
104
52
171
90
19
12
132
16
18
24
17
89
168
44
35
4
162
91
29
22
6
32
79
2
64
9
15
85
141
38
54
13
3
41
185

>  <PUBCHEM_MMFF94_PARTIAL_CHARGES>  (1) 
29
1 -0.36
10 -0.15
11 -0.15
12 0.27
13 0.27
14 -0.15
15 -0.15
16 -0.15
17 0.08
18 -0.15
19 0.16
2 -0.84
20 -0.15
21 0.28
28 0.15
29 0.15
3 -0.81
36 0.15
37 0.15
38 0.15
39 0.15
4 -0.62
40 0.15
41 0.15
5 0.37
6 0.27
7 0.51
8 -0.14
9 0.41

>  <PUBCHEM_EFFECTIVE_ROTOR_COUNT>  (1) 
7

>  <PUBCHEM_PHARMACOPHORE_FEATURES>  (1) 
6
1 1 acceptor
1 2 cation
1 3 cation
1 4 acceptor
6 4 9 14 18 19 20 rings
6 8 10 11 15 16 17 rings

>  <PUBCHEM_HEAVY_ATOM_COUNT>  (1) 
21

>  <PUBCHEM_ATOM_DEF_STEREO_COUNT>  (1) 
0

>  <PUBCHEM_ATOM_UDEF_STEREO_COUNT>  (1) 
0

>  <PUBCHEM_BOND_DEF_STEREO_COUNT>  (1) 
0

>  <PUBCHEM_BOND_UDEF_STEREO_COUNT>  (1) 
0

>  <PUBCHEM_ISOTOPIC_ATOM_COUNT>  (1) 
0

>  <PUBCHEM_COMPONENT_COUNT>  (1) 
1

>  <PUBCHEM_CACTVS_TAUTO_COUNT>  (1) 
1

>  <PUBCHEM_CONFORMER_ID>  (1) 
0000138000000001

>  <PUBCHEM_MMFF94_ENERGY>  (1) 
78.5311

>  <PUBCHEM_FEATURE_SELFOVERLAP>  (1) 
30.447

>  <PUBCHEM_SHAPE_FINGERPRINT>  (1) 
105312 117 18046919444182413452
10764073 3 16229941062939818304
10871710 139 15812018260369012828
12553582 1 17835821710751708258
12730499 353 18409738386890815723
12788726 201 16966342089362585330
13052359 8 17908986844301638170
13257819 37 17976839884294483172
133893 2 18197520470798012410
14251764 30 9222693101674503800
15163728 17 17969520353425641388
15502722 9 18413396431689869232
15842332 3 17631188389397353361
20197701 30 18270115855045118344
20369508 70 18190457156287797403
20554085 129 17916003811451302840
20567600 347 18339927133636746810
20600515 1 17477185151587519960
20645477 70 18343300336748146343
20671657 53 18052821347052585515
21033648 29 13624627545891545469
21344244 246 18131080316437944542
21521239 73 17775575255977670788
21524375 3 18266744773784869296
22182313 1 18042144157671441915
22393880 68 18340779203355393726
2255824 54 18340772528886908218
22907989 373 17330299653797666156
23114952 82 18409449154902708805
23366157 5 18261961747568912986
23419403 2 17097743843756509686
23557571 272 17386587850238079731
23559900 14 18341325592041723267
23598291 2 17986968357607704649
25147074 1 17702957920057918281
3004659 81 17987510417103812215
312423 11 17987807306754928793
4017518 198 18130794504050628102
4280585 95 17982176626100253078
46194498 28 18338791200902377837
53777708 50 18200880556884338249
59755656 215 18407758119178605780
60123966 16 18191286205561863181
6025842 7 18413101758458051663
6138700 20 18340498768836973726
633830 44 17343538697172152080
67856867 119 18410282597437824315
7364860 26 18341896255756219746
81539 233 18410857702422863198
9709674 26 18411136901341616523
9981440 41 18189896589835043090

>  <PUBCHEM_SHAPE_MULTIPOLES>  (1) 
411.36
9.73
4.05
1.33
11.19
1.67
-0.2
-6.96
-3.5
-6.99
-0.84
-0.21
0.12
0.72

>  <PUBCHEM_SHAPE_SELFOVERLAP>  (1) 
852.886

>  <PUBCHEM_SHAPE_VOLUME>  (1) 
236.1

>  <PUBCHEM_COORDINATE_TYPE>  (1) 
2
5
10

$$$$
