49939
     RDKit          3D

 12 11  0  0  0  0  0  0  0  0999 V2000
    3.8519   -0.2086    0.0135 S   0  0  0  0  0  0  0  0  0  0  0  0
    4.8853    1.0204   -0.2744 O   0  0  0  0  0  0  0  0  0  0  0  0
    3.8652   -1.1057   -1.1284 O   0  0  0  0  0  0  0  0  0  0  0  0
    4.0744   -0.6968    1.3631 O   0  0  0  0  0  0  0  0  0  0  0  0
   -1.4476   -0.2932   -0.0031 C   0  0  0  0  0  0  0  0  0  0  0  0
   -0.2222    0.6228   -0.0120 C   0  0  0  0  0  0  0  0  0  0  0  0
   -2.7448    0.5186    0.0209 C   0  0  0  0  0  0  0  0  0  0  0  0
    1.1094   -0.1329    0.0556 C   0  0  0  0  0  0  0  0  0  0  0  0
   -3.9730   -0.3930   -0.0037 C   0  0  0  0  0  0  0  0  0  0  0  0
    2.3607    0.7321   -0.0133 C   0  0  0  0  0  0  0  0  0  0  0  0
   -5.2678    0.4193   -0.0137 C   0  0  0  0  0  0  0  0  0  0  0  0
   -6.4915   -0.4830   -0.0045 C   0  0  0  0  0  0  0  0  0  0  0  0
  1  2  1  0
  1  3  2  0
  1  4  2  0
  1 10  1  0
  5  6  1  0
  5  7  1  0
  6  8  1  0
  7  9  1  0
  8 10  1  0
  9 11  1  0
 11 12  1  0
M  END
>  <PUBCHEM_COMPOUND_CID>  (1) 
49939

>  <PUBCHEM_CONFORMER_RMSD>  (1) 
0.8

>  <PUBCHEM_CONFORMER_DIVERSEORDER>  (1) 
1
10
54
47
4
19
14
36
5
49
22
42
23
35
13
7
51
53
16
32
8
44
9
20
28
17
29
18
26
46
50
41
45
40
15
3
52
6
27
33
2
48
21
25
12
34
31
24
37
38
39
11
30
43

>  <PUBCHEM_MMFF94_PARTIAL_CHARGES>  (1) 
6
1 1.38
10 0.11
2 -0.68
3 -0.65
30 0.5
4 -0.65

>  <PUBCHEM_EFFECTIVE_ROTOR_COUNT>  (1) 
7

>  <PUBCHEM_PHARMACOPHORE_FEATURES>  (1) 
7
1 12 hydrophobe
1 2 acceptor
1 3 acceptor
1 4 acceptor
3 5 6 8 hydrophobe
3 7 9 11 hydrophobe
4 1 2 3 4 anion

>  <PUBCHEM_HEAVY_ATOM_COUNT>  (1) 
12

>  <PUBCHEM_ATOM_DEF_STEREO_COUNT>  (1) 
0

>  <PUBCHEM_ATOM_UDEF_STEREO_COUNT>  (1) 
0

>  <PUBCHEM_BOND_DEF_STEREO_COUNT>  (1) 
0

>  <PUBCHEM_BOND_UDEF_STEREO_COUNT>  (1) 
0

>  <PUBCHEM_ISOTOPIC_ATOM_COUNT>  (1) 
0

>  <PUBCHEM_COMPONENT_COUNT>  (1) 
1

>  <PUBCHEM_CACTVS_TAUTO_COUNT>  (1) 
1

>  <PUBCHEM_CONFORMER_ID>  (1) 
0000C31300000001

>  <PUBCHEM_MMFF94_ENERGY>  (1) 
-0.2308

>  <PUBCHEM_FEATURE_SELFOVERLAP>  (1) 
35.587

>  <PUBCHEM_SHAPE_FINGERPRINT>  (1) 
11287383 113 18113902697220454577
13533116 47 16415487008316989366
14123238 8 17203610389197351661
1420 363 18186807993791860979
14251718 22 18334295387918839045
17834072 33 18272931661015483661
17834076 25 17346882255970335556
20281389 69 17313098606620832357
20645477 70 18130512929414106014
20719005 15 18410292510654827369
22485316 2 17967250918344031810
23402539 116 18413383238288996357
42788 4 18335420171097345885
522135 26 17095241410851531074
5374978 207 18201995534504633392
57483677 66 18259702324520749035

>  <PUBCHEM_SHAPE_MULTIPOLES>  (1) 
233.2
14.6
0.94
0.8
11.47
0.01
-0.07
-1.4
0.09
-0.54
0.06
-0.79
-0.17
-0.03

>  <PUBCHEM_SHAPE_SELFOVERLAP>  (1) 
411.726

>  <PUBCHEM_SHAPE_VOLUME>  (1) 
152.3

>  <PUBCHEM_COORDINATE_TYPE>  (1) 
2
5
10

$$$$
