49946
     RDKit          3D

 19 20  0  0  0  0  0  0  0  0999 V2000
   -3.1825    2.6587   -0.1348 Cl  0  0  0  0  0  0  0  0  0  0  0  0
   -1.5650   -2.4698    0.8177 Cl  0  0  0  0  0  0  0  0  0  0  0  0
   -0.0461    0.5032   -1.3666 O   0  0  0  0  0  0  0  0  0  0  0  0
    2.3147    0.7721    0.0349 N   0  0  0  0  0  0  0  0  0  0  0  0
    4.8394   -0.6358    0.0830 N   0  0  0  0  0  0  0  0  0  0  0  0
   -1.2121    0.5213    0.6711 N   0  0  0  0  0  0  0  0  0  0  0  0
    2.3702   -0.6946    0.0085 C   0  0  0  0  0  0  0  0  0  0  0  0
    3.4769    1.3157    0.7483 C   0  0  0  0  0  0  0  0  0  0  0  0
    3.6767   -1.1792   -0.6296 C   0  0  0  0  0  0  0  0  0  0  0  0
    4.7839    0.8309    0.1115 C   0  0  0  0  0  0  0  0  0  0  0  0
    1.0691    1.2337    0.6443 C   0  0  0  0  0  0  0  0  0  0  0  0
    6.0846   -1.0965   -0.5283 C   0  0  0  0  0  0  0  0  0  0  0  0
   -0.1099    0.7132   -0.1596 C   0  0  0  0  0  0  0  0  0  0  0  0
   -2.4959    0.0497    0.3071 C   0  0  0  0  0  0  0  0  0  0  0  0
   -3.4733    0.9558   -0.0800 C   0  0  0  0  0  0  0  0  0  0  0  0
   -2.7579   -1.3130    0.3413 C   0  0  0  0  0  0  0  0  0  0  0  0
   -4.7379    0.4902   -0.4403 C   0  0  0  0  0  0  0  0  0  0  0  0
   -4.0226   -1.7785   -0.0189 C   0  0  0  0  0  0  0  0  0  0  0  0
   -5.0125   -0.8769   -0.4097 C   0  0  0  0  0  0  0  0  0  0  0  0
  1 15  1  0
  2 16  1  0
  3 13  2  0
  4  7  1  0
  4  8  1  0
  4 11  1  0
  5  9  1  0
  5 10  1  0
  5 12  1  0
  6 13  1  0
  6 14  1  0
  7  9  1  0
  8 10  1  0
 11 13  1  0
 14 15  2  0
 14 16  1  0
 15 17  1  0
 16 18  2  0
 17 19  2  0
 18 19  1  0
M  END
>  <PUBCHEM_COMPOUND_CID>  (1) 
49946

>  <PUBCHEM_CONFORMER_RMSD>  (1) 
0.8

>  <PUBCHEM_CONFORMER_DIVERSEORDER>  (1) 
2
7
5
3
6
10
9
4
8
1

>  <PUBCHEM_MMFF94_PARTIAL_CHARGES>  (1) 
23
1 -0.18
10 0.27
11 0.33
12 0.27
13 0.57
14 0.12
15 0.18
16 0.18
17 -0.15
18 -0.15
19 -0.15
2 -0.18
3 -0.57
33 0.37
34 0.15
35 0.15
36 0.15
4 -0.81
5 -0.81
6 -0.55
7 0.27
8 0.27
9 0.27

>  <PUBCHEM_EFFECTIVE_ROTOR_COUNT>  (1) 
5.2

>  <PUBCHEM_PHARMACOPHORE_FEATURES>  (1) 
6
1 3 acceptor
1 4 cation
1 5 cation
1 6 donor
6 14 15 16 17 18 19 rings
6 4 5 7 8 9 10 rings

>  <PUBCHEM_HEAVY_ATOM_COUNT>  (1) 
19

>  <PUBCHEM_ATOM_DEF_STEREO_COUNT>  (1) 
0

>  <PUBCHEM_ATOM_UDEF_STEREO_COUNT>  (1) 
0

>  <PUBCHEM_BOND_DEF_STEREO_COUNT>  (1) 
0

>  <PUBCHEM_BOND_UDEF_STEREO_COUNT>  (1) 
0

>  <PUBCHEM_ISOTOPIC_ATOM_COUNT>  (1) 
0

>  <PUBCHEM_COMPONENT_COUNT>  (1) 
1

>  <PUBCHEM_CACTVS_TAUTO_COUNT>  (1) 
2

>  <PUBCHEM_CONFORMER_ID>  (1) 
0000C31A00000002

>  <PUBCHEM_MMFF94_ENERGY>  (1) 
65.447

>  <PUBCHEM_FEATURE_SELFOVERLAP>  (1) 
30.448

>  <PUBCHEM_SHAPE_FINGERPRINT>  (1) 
10 15 18129647713164232504
10366900 7 18060423546909511584
11045977 3 18341894112899802770
11315181 36 18060422413001241600
11370993 70 18411134749025008859
11458722 379 18334574642302882667
12107183 9 17761208813093652176
12500047 106 18408884005762410537
12507560 40 18201715176177416264
12555020 224 18410285935165879711
12596602 18 14908173170967014622
13167823 11 18412823598900707254
13288520 33 18411419523190217407
13544592 145 18408039623908552178
13675066 3 17988635307556333064
14251731 8 18408886209275773374
14251740 79 18411421691858584483
14341114 176 18412267258955033352
14573314 32 18410291410705518796
15042514 8 18190467245872935627
15163728 17 16155369998543644791
15196674 1 18411982489780520210
15375358 24 18413109467803275330
15788980 27 18113059337436865808
15961568 22 17750513056628215740
17834072 33 18343020021159235708
17834072 8 18333444344639438951
17844677 252 18413113861681751064
17870717 6 18411427197880323463
1813 80 17240480329580664884
19489759 90 18411135814202940669
200 152 17632576063191858337
20374829 77 18408038503032864218
20645477 70 17846501418111562350
20871999 31 18334859394028163200
21065201 7 18335411378872159976
21267235 1 18334862753436452267
21279426 13 18195530290011132838
21682296 61 17059229029525075694
2215653 11 18341608213626775047
23402539 116 18412537730932277229
23557571 272 18412547582838492756
23559900 14 18340761641123675121
239999 70 18342740724353475230
26918003 58 18273494563703061784
2871803 45 18335417972090044698
3004659 81 18333732403996192962
351380 180 18343580767746863887
4214541 1 18411982433909126025
465052 167 17846503668368509334
4921388 177 16950853612400876843
5104073 3 18343864415813561880
5283173 99 18338795619923162584
542803 24 14273452574266652508
559249 180 18337668607719692274
59755656 215 18334289860718390087
59755656 520 18269274557089204313
77779 3 18412262839549665304
9709674 26 18265897045634626411

>  <PUBCHEM_SHAPE_MULTIPOLES>  (1) 
373.94
12.62
2.25
0.86
10.17
0.01
0.04
2.39
1.8
-1.74
-0.26
0.08
0.03
0.86

>  <PUBCHEM_SHAPE_SELFOVERLAP>  (1) 
755.299

>  <PUBCHEM_SHAPE_VOLUME>  (1) 
220.7

>  <PUBCHEM_COORDINATE_TYPE>  (1) 
2
5
10

$$$$
