49948
     RDKit          3D

 18 18  0  0  0  0  0  0  0  0999 V2000
   -1.6279   -2.8824    0.1094 Cl  0  0  0  0  0  0  0  0  0  0  0  0
   -0.9412    2.4361   -0.9206 Cl  0  0  0  0  0  0  0  0  0  0  0  0
   -5.7654    0.5301    0.4959 Cl  0  0  0  0  0  0  0  0  0  0  0  0
    0.9671   -0.1492    1.4460 O   0  0  0  0  0  0  0  0  0  0  0  0
    3.4199   -0.0017    0.1912 N   0  0  0  0  0  0  0  0  0  0  0  0
   -0.0464   -0.4315   -0.6529 N   0  0  0  0  0  0  0  0  0  0  0  0
    2.3214   -0.7028   -0.4726 C   0  0  0  0  0  0  0  0  0  0  0  0
    3.1932    1.4428    0.1669 C   0  0  0  0  0  0  0  0  0  0  0  0
    4.6946   -0.3299   -0.4461 C   0  0  0  0  0  0  0  0  0  0  0  0
    1.0185   -0.3946    0.2450 C   0  0  0  0  0  0  0  0  0  0  0  0
    4.3362    2.1625    0.8567 C   0  0  0  0  0  0  0  0  0  0  0  0
    4.9514   -1.8223   -0.3625 C   0  0  0  0  0  0  0  0  0  0  0  0
   -1.4155   -0.2011   -0.3786 C   0  0  0  0  0  0  0  0  0  0  0  0
   -2.2285   -1.2664   -0.0172 C   0  0  0  0  0  0  0  0  0  0  0  0
   -1.9248    1.0865   -0.4740 C   0  0  0  0  0  0  0  0  0  0  0  0
   -3.5778   -1.0395    0.2543 C   0  0  0  0  0  0  0  0  0  0  0  0
   -3.2741    1.3133   -0.2025 C   0  0  0  0  0  0  0  0  0  0  0  0
   -4.1006    0.2502    0.1616 C   0  0  0  0  0  0  0  0  0  0  0  0
  1 14  1  0
  2 15  1  0
  3 18  1  0
  4 10  2  0
  5  7  1  0
  5  8  1  0
  5  9  1  0
  6 10  1  0
  6 13  1  0
  7 10  1  0
  8 11  1  0
  9 12  1  0
 13 14  2  0
 13 15  1  0
 14 16  1  0
 15 17  2  0
 16 18  2  0
 17 18  1  0
M  END
>  <PUBCHEM_COMPOUND_CID>  (1) 
49948

>  <PUBCHEM_CONFORMER_RMSD>  (1) 
0.8

>  <PUBCHEM_CONFORMER_DIVERSEORDER>  (1) 
2
8
5
7
3
6
4
1

>  <PUBCHEM_MMFF94_PARTIAL_CHARGES>  (1) 
19
1 -0.18
10 0.57
13 0.12
14 0.18
15 0.18
16 -0.15
17 -0.15
18 0.18
2 -0.18
3 -0.18
31 0.37
32 0.15
33 0.15
4 -0.57
5 -0.81
6 -0.55
7 0.33
8 0.27
9 0.27

>  <PUBCHEM_EFFECTIVE_ROTOR_COUNT>  (1) 
6

>  <PUBCHEM_PHARMACOPHORE_FEATURES>  (1) 
4
1 4 acceptor
1 5 cation
1 6 donor
6 13 14 15 16 17 18 rings

>  <PUBCHEM_HEAVY_ATOM_COUNT>  (1) 
18

>  <PUBCHEM_ATOM_DEF_STEREO_COUNT>  (1) 
0

>  <PUBCHEM_ATOM_UDEF_STEREO_COUNT>  (1) 
0

>  <PUBCHEM_BOND_DEF_STEREO_COUNT>  (1) 
0

>  <PUBCHEM_BOND_UDEF_STEREO_COUNT>  (1) 
0

>  <PUBCHEM_ISOTOPIC_ATOM_COUNT>  (1) 
0

>  <PUBCHEM_COMPONENT_COUNT>  (1) 
1

>  <PUBCHEM_CACTVS_TAUTO_COUNT>  (1) 
2

>  <PUBCHEM_CONFORMER_ID>  (1) 
0000C31C00000002

>  <PUBCHEM_MMFF94_ENERGY>  (1) 
58.9529

>  <PUBCHEM_FEATURE_SELFOVERLAP>  (1) 
20.297

>  <PUBCHEM_SHAPE_FINGERPRINT>  (1) 
11132069 177 18261106421758731901
11405975 8 18412824698876753850
12011746 2 18336260168253851501
12173636 292 18408878521337028853
12236239 1 17313110730637846687
12403259 415 18334289838378377596
12969540 114 18188750796341155829
13081056 2 18411418401660726468
13533116 47 17676762063894686611
14341114 176 18410299103197752020
15042514 8 18262246624703593059
15196674 1 18411981398869188109
15536298 74 18411138069367018660
1813 80 17095239254398582724
18186145 218 18186512211946719310
19141452 34 18341333374569890847
19784866 170 18262242106381484697
20510252 161 18340768131404795617
20645477 56 18408884048669749086
20645477 70 17632583751616127558
21065198 57 18412545431391777342
21267235 1 18261403225795293415
21652331 79 18408319999294871020
22224240 67 18410864253155494419
2297311 6 18335713688914402654
23175994 123 17489873717218753577
23402539 116 18412541007754914879
23557571 272 18268440203302766166
23559900 14 18341893004930174194
2748010 2 17830460484545425455
2838139 119 15984260696109596689
3545911 37 18412263960910597932
4214541 1 18411982455505086918
5104073 3 18411699919513283850
58051976 100 18413672413630762126
59755656 215 18262240993289305207
77779 3 18412545435586446374
9709674 26 18342181059391250382

>  <PUBCHEM_SHAPE_MULTIPOLES>  (1) 
360.21
11.03
2.47
0.89
3.05
0.22
-0.09
-0.73
-1.23
0.54
0.12
0.21
-0.2
0.97

>  <PUBCHEM_SHAPE_SELFOVERLAP>  (1) 
705.311

>  <PUBCHEM_SHAPE_VOLUME>  (1) 
220.4

>  <PUBCHEM_COORDINATE_TYPE>  (1) 
2
5
10

$$$$
