49952
     RDKit          3D

 20 20  0  0  0  0  0  0  0  0999 V2000
   -0.9508    2.9616   -0.1776 Cl  0  0  0  0  0  0  0  0  0  0  0  0
   -0.3764   -2.3159    1.1001 Cl  0  0  0  0  0  0  0  0  0  0  0  0
    1.5390    0.0967   -1.4366 O   0  0  0  0  0  0  0  0  0  0  0  0
    4.0173   -0.0564   -0.2336 N   0  0  0  0  0  0  0  0  0  0  0  0
    0.5853    0.5091    0.6687 N   0  0  0  0  0  0  0  0  0  0  0  0
   -4.8810   -0.3070   -0.2450 N   0  0  0  0  0  0  0  0  0  0  0  0
    2.9542    0.7061    0.4200 C   0  0  0  0  0  0  0  0  0  0  0  0
    3.7534   -1.4912   -0.1324 C   0  0  0  0  0  0  0  0  0  0  0  0
    5.3155    0.2675    0.3568 C   0  0  0  0  0  0  0  0  0  0  0  0
    1.6264    0.3991   -0.2508 C   0  0  0  0  0  0  0  0  0  0  0  0
    4.8488   -2.2997   -0.8066 C   0  0  0  0  0  0  0  0  0  0  0  0
    5.6339    1.7453    0.2061 C   0  0  0  0  0  0  0  0  0  0  0  0
   -0.7957    0.3031    0.4381 C   0  0  0  0  0  0  0  0  0  0  0  0
   -3.5044   -0.1015   -0.0152 C   0  0  0  0  0  0  0  0  0  0  0  0
   -1.5899    1.3708    0.0434 C   0  0  0  0  0  0  0  0  0  0  0  0
   -1.3357   -0.9641    0.6095 C   0  0  0  0  0  0  0  0  0  0  0  0
   -2.9510    1.1675   -0.1843 C   0  0  0  0  0  0  0  0  0  0  0  0
   -2.6968   -1.1674    0.3818 C   0  0  0  0  0  0  0  0  0  0  0  0
   -5.8304    0.7643   -0.0188 C   0  0  0  0  0  0  0  0  0  0  0  0
   -5.3618   -1.5878   -0.7235 C   0  0  0  0  0  0  0  0  0  0  0  0
  1 15  1  0
  2 16  1  0
  3 10  2  0
  4  7  1  0
  4  8  1  0
  4  9  1  0
  5 10  1  0
  5 13  1  0
  6 14  1  0
  6 19  1  0
  6 20  1  0
  7 10  1  0
  8 11  1  0
  9 12  1  0
 13 15  2  0
 13 16  1  0
 14 17  2  0
 14 18  1  0
 15 17  1  0
 16 18  2  0
M  END
>  <PUBCHEM_COMPOUND_CID>  (1) 
49952

>  <PUBCHEM_CONFORMER_RMSD>  (1) 
0.8

>  <PUBCHEM_CONFORMER_DIVERSEORDER>  (1) 
1
21
12
13
14
16
19
11
4
20
10
6
8
9
5
3
18
15
2
17
7

>  <PUBCHEM_MMFF94_PARTIAL_CHARGES>  (1) 
21
1 -0.18
10 0.57
13 0.12
14 0.1
15 0.18
16 0.18
17 -0.15
18 -0.15
19 0.37
2 -0.18
20 0.37
3 -0.57
33 0.37
34 0.15
35 0.15
4 -0.81
5 -0.55
6 -0.84
7 0.33
8 0.27
9 0.27

>  <PUBCHEM_EFFECTIVE_ROTOR_COUNT>  (1) 
7

>  <PUBCHEM_PHARMACOPHORE_FEATURES>  (1) 
5
1 3 acceptor
1 4 cation
1 5 donor
1 6 cation
6 13 14 15 16 17 18 rings

>  <PUBCHEM_HEAVY_ATOM_COUNT>  (1) 
20

>  <PUBCHEM_ATOM_DEF_STEREO_COUNT>  (1) 
0

>  <PUBCHEM_ATOM_UDEF_STEREO_COUNT>  (1) 
0

>  <PUBCHEM_BOND_DEF_STEREO_COUNT>  (1) 
0

>  <PUBCHEM_BOND_UDEF_STEREO_COUNT>  (1) 
0

>  <PUBCHEM_ISOTOPIC_ATOM_COUNT>  (1) 
0

>  <PUBCHEM_COMPONENT_COUNT>  (1) 
1

>  <PUBCHEM_CACTVS_TAUTO_COUNT>  (1) 
2

>  <PUBCHEM_CONFORMER_ID>  (1) 
0000C32000000001

>  <PUBCHEM_MMFF94_ENERGY>  (1) 
81.3811

>  <PUBCHEM_FEATURE_SELFOVERLAP>  (1) 
25.371

>  <PUBCHEM_SHAPE_FINGERPRINT>  (1) 
10366900 7 18272375312848880752
10693767 8 18270944822467898879
10906281 52 18267324151397678612
10968037 39 18409448123952295661
12236239 1 17385436635409002472
12403259 226 18341327786902003520
12916748 109 18113622269894004361
12916754 54 18200317611236296968
13167823 11 18272087163028865614
13533116 47 18411138000932365426
13862211 1 18334851732249755475
14115302 16 17895483612571452221
14790565 3 17619631285561398209
15099037 51 18260829328012374131
15196674 1 18411700954568590450
15375358 24 18408606989626528034
187816 3 18261109690539872737
200 152 17704071798166442115
20374829 77 18341892987581350543
20510252 161 18410855417426954768
20645477 56 18259986006778288400
20645477 70 18130792214237011918
21029758 11 18411699915392642601
21637258 2 16701726229752217959
23402539 116 18411694405059981845
23557571 272 18342178838618624013
23559900 14 18337672035494147120
2748010 2 17755580796209197121
283562 15 18335980879125740569
2838139 119 14924207340708701831
2871803 45 18335139756972490578
3004659 81 18334859381918818842
3286 77 17561361785782248129
351380 180 18412544314330872366
3545911 37 18409450302181248588
4214541 1 18339081472019855696
5104073 3 18341333288786343296
5283173 99 18262510412303534397
59755656 215 18261674749406989663
69090 78 18413107268616567466
9709674 26 18409737270331577114

>  <PUBCHEM_SHAPE_MULTIPOLES>  (1) 
394.52
13.03
2.47
0.9
3.08
0.18
-0.05
-1.3
-1.86
0.68
-0.01
0.16
-0.27
0.56

>  <PUBCHEM_SHAPE_SELFOVERLAP>  (1) 
778.498

>  <PUBCHEM_SHAPE_VOLUME>  (1) 
239.3

>  <PUBCHEM_COORDINATE_TYPE>  (1) 
2
5
10

$$$$
