49950
     RDKit          3D

 20 20  0  0  0  0  0  0  0  0999 V2000
   -0.9602   -2.9653    0.0364 Cl  0  0  0  0  0  0  0  0  0  0  0  0
   -0.3872    2.3694   -0.9786 Cl  0  0  0  0  0  0  0  0  0  0  0  0
    1.5281   -0.1674    1.4310 O   0  0  0  0  0  0  0  0  0  0  0  0
   -5.6080   -0.6937    0.5763 O   0  0  0  0  0  0  0  0  0  0  0  0
   -5.3788    1.4512    0.1690 O   0  0  0  0  0  0  0  0  0  0  0  0
    4.0061    0.0472    0.2368 N   0  0  0  0  0  0  0  0  0  0  0  0
    0.5743   -0.4734   -0.6924 N   0  0  0  0  0  0  0  0  0  0  0  0
   -4.9003    0.2955    0.2677 N   0  0  0  0  0  0  0  0  0  0  0  0
    2.9432   -0.6818   -0.4543 C   0  0  0  0  0  0  0  0  0  0  0  0
    3.7417    1.4852    0.2082 C   0  0  0  0  0  0  0  0  0  0  0  0
    5.3044   -0.2460   -0.3693 C   0  0  0  0  0  0  0  0  0  0  0  0
    1.6154   -0.4096    0.2314 C   0  0  0  0  0  0  0  0  0  0  0  0
    4.8369    2.2590    0.9222 C   0  0  0  0  0  0  0  0  0  0  0  0
    5.6233   -1.7296   -0.2934 C   0  0  0  0  0  0  0  0  0  0  0  0
   -0.8069   -0.2799   -0.4516 C   0  0  0  0  0  0  0  0  0  0  0  0
   -1.6006   -1.3664   -0.1112 C   0  0  0  0  0  0  0  0  0  0  0  0
   -1.3469    0.9943   -0.5583 C   0  0  0  0  0  0  0  0  0  0  0  0
   -3.5152    0.1010    0.0229 C   0  0  0  0  0  0  0  0  0  0  0  0
   -2.9616   -1.1749    0.1272 C   0  0  0  0  0  0  0  0  0  0  0  0
   -2.7079    1.1856   -0.3199 C   0  0  0  0  0  0  0  0  0  0  0  0
  1 16  1  0
  2 17  1  0
  3 12  2  0
  4  8  1  0
  5  8  2  0
  6  9  1  0
  6 10  1  0
  6 11  1  0
  7 12  1  0
  7 15  1  0
  8 18  1  0
  9 12  1  0
 10 13  1  0
 11 14  1  0
 15 16  2  0
 15 17  1  0
 16 19  1  0
 17 20  2  0
 18 19  2  0
 18 20  1  0
M  CHG  2   4  -1   8   1
M  END
>  <PUBCHEM_COMPOUND_CID>  (1) 
49950

>  <PUBCHEM_CONFORMER_RMSD>  (1) 
0.8

>  <PUBCHEM_CONFORMER_DIVERSEORDER>  (1) 
1
5
6
3
4
7
2

>  <PUBCHEM_MMFF94_PARTIAL_CHARGES>  (1) 
21
1 -0.18
10 0.27
11 0.27
12 0.57
15 0.12
16 0.18
17 0.18
18 0.13
19 -0.15
2 -0.18
20 -0.15
3 -0.57
33 0.37
34 0.15
35 0.15
4 -0.52
5 -0.52
6 -0.81
7 -0.55
8 0.91
9 0.33

>  <PUBCHEM_EFFECTIVE_ROTOR_COUNT>  (1) 
7

>  <PUBCHEM_PHARMACOPHORE_FEATURES>  (1) 
7
1 3 acceptor
1 4 acceptor
1 4 anion
1 5 acceptor
1 6 cation
1 7 donor
6 15 16 17 18 19 20 rings

>  <PUBCHEM_HEAVY_ATOM_COUNT>  (1) 
20

>  <PUBCHEM_ATOM_DEF_STEREO_COUNT>  (1) 
0

>  <PUBCHEM_ATOM_UDEF_STEREO_COUNT>  (1) 
0

>  <PUBCHEM_BOND_DEF_STEREO_COUNT>  (1) 
0

>  <PUBCHEM_BOND_UDEF_STEREO_COUNT>  (1) 
0

>  <PUBCHEM_ISOTOPIC_ATOM_COUNT>  (1) 
0

>  <PUBCHEM_COMPONENT_COUNT>  (1) 
1

>  <PUBCHEM_CACTVS_TAUTO_COUNT>  (1) 
2

>  <PUBCHEM_CONFORMER_ID>  (1) 
0000C31E00000001

>  <PUBCHEM_MMFF94_ENERGY>  (1) 
69.8098

>  <PUBCHEM_FEATURE_SELFOVERLAP>  (1) 
35.602

>  <PUBCHEM_SHAPE_FINGERPRINT>  (1) 
10366900 7 16226052175858688728
10493431 412 18410291458277005203
11405975 8 18412822512965240466
12011746 2 18408317766380959925
12236239 1 17386011654252141590
12403259 415 18334006164731826332
12969540 114 18189596329151317047
13081056 2 18411417306734131892
13140716 1 18263657324023020203
13533116 47 17604140424792165450
13544592 145 18271821085578704158
14341114 176 18411422817177250576
14790565 3 18409173194891301237
15042514 8 18262525913346829603
15196674 1 18411699923797486476
1813 80 16950560012773804516
18186145 218 18114452427712860262
19141452 34 18341612658918147270
19784866 170 18334860459760177903
20510252 161 18340768135494002089
20645477 56 18409448094056264758
21033648 29 18337938035271426857
21267235 1 18261120659538232470
21652331 79 18408037429381035756
22224240 67 18411142438044941787
2297311 6 18335711494481494038
23175994 123 17489872626613519512
23402539 116 18412822482473156199
23557571 272 18187931629618079148
23559900 14 18341893009320125946
350125 39 18264770961138960022
3545911 37 18411981390917660908
5104073 3 18410571829489592362
59755656 215 18263648376979103422
77779 3 18412825819894677934

>  <PUBCHEM_SHAPE_MULTIPOLES>  (1) 
382.78
12.32
2.45
0.87
3.23
0.21
-0.06
-1.15
-1.77
0.69
0.09
0.32
-0.2
0.98

>  <PUBCHEM_SHAPE_SELFOVERLAP>  (1) 
765.142

>  <PUBCHEM_SHAPE_VOLUME>  (1) 
229.3

>  <PUBCHEM_COORDINATE_TYPE>  (1) 
2
5
10

$$$$
