49954
     RDKit          3D

 25 26  0  0  0  0  0  0  0  0999 V2000
    1.1365    1.9304   -1.3629 Cl  0  0  0  0  0  0  0  0  0  0  0  0
    1.2056   -3.2386    0.3970 Cl  0  0  0  0  0  0  0  0  0  0  0  0
   -3.0698   -0.5390    0.0209 O   0  0  0  0  0  0  0  0  0  0  0  0
    3.2408    0.0373    1.4506 O   0  0  0  0  0  0  0  0  0  0  0  0
    5.7274    0.4134    0.3156 N   0  0  0  0  0  0  0  0  0  0  0  0
    2.4418   -0.6885   -0.6342 N   0  0  0  0  0  0  0  0  0  0  0  0
    4.8029   -0.5414   -0.2947 C   0  0  0  0  0  0  0  0  0  0  0  0
    7.0813    0.2153   -0.2006 C   0  0  0  0  0  0  0  0  0  0  0  0
    5.2821    1.7846    0.0699 C   0  0  0  0  0  0  0  0  0  0  0  0
    3.4186   -0.3566    0.3024 C   0  0  0  0  0  0  0  0  0  0  0  0
    7.5840   -1.1864    0.1002 C   0  0  0  0  0  0  0  0  0  0  0  0
    6.2317    2.7909    0.6975 C   0  0  0  0  0  0  0  0  0  0  0  0
    1.0369   -0.6504   -0.4672 C   0  0  0  0  0  0  0  0  0  0  0  0
    0.3431    0.5113   -0.7759 C   0  0  0  0  0  0  0  0  0  0  0  0
    0.3737   -1.7755    0.0028 C   0  0  0  0  0  0  0  0  0  0  0  0
   -1.7186   -0.5756   -0.1395 C   0  0  0  0  0  0  0  0  0  0  0  0
   -1.0415    0.5489   -0.6111 C   0  0  0  0  0  0  0  0  0  0  0  0
   -1.0110   -1.7378    0.1676 C   0  0  0  0  0  0  0  0  0  0  0  0
   -3.7303    0.6809   -0.3122 C   0  0  0  0  0  0  0  0  0  0  0  0
   -5.1984    0.5331   -0.0397 C   0  0  0  0  0  0  0  0  0  0  0  0
   -6.0410    0.0654   -1.0420 C   0  0  0  0  0  0  0  0  0  0  0  0
   -5.7031    0.8648    1.2129 C   0  0  0  0  0  0  0  0  0  0  0  0
   -7.4057   -0.0722   -0.7888 C   0  0  0  0  0  0  0  0  0  0  0  0
   -7.0679    0.7270    1.4660 C   0  0  0  0  0  0  0  0  0  0  0  0
   -7.9192    0.2585    0.4652 C   0  0  0  0  0  0  0  0  0  0  0  0
  1 14  1  0
  2 15  1  0
  3 16  1  0
  3 19  1  0
  4 10  2  0
  5  7  1  0
  5  8  1  0
  5  9  1  0
  6 10  1  0
  6 13  1  0
  7 10  1  0
  8 11  1  0
  9 12  1  0
 13 14  2  0
 13 15  1  0
 14 17  1  0
 15 18  2  0
 16 17  2  0
 16 18  1  0
 19 20  1  0
 20 21  2  0
 20 22  1  0
 21 23  1  0
 22 24  2  0
 23 25  2  0
 24 25  1  0
M  END
>  <PUBCHEM_COMPOUND_CID>  (1) 
49954

>  <PUBCHEM_CONFORMER_RMSD>  (1) 
1

>  <PUBCHEM_CONFORMER_DIVERSEORDER>  (1) 
1
33
34
9
29
21
18
27
23
28
11
17
35
38
4
32
12
13
19
10
24
37
30
22
7
36
25
16
20
40
31
14
15
3
26
8
6
5
39
2

>  <PUBCHEM_MMFF94_PARTIAL_CHARGES>  (1) 
31
1 -0.18
10 0.57
13 0.12
14 0.18
15 0.18
16 0.08
17 -0.15
18 -0.15
19 0.42
2 -0.18
20 -0.14
21 -0.15
22 -0.15
23 -0.15
24 -0.15
25 -0.15
3 -0.36
38 0.37
39 0.15
4 -0.57
40 0.15
43 0.15
44 0.15
45 0.15
46 0.15
47 0.15
5 -0.81
6 -0.55
7 0.33
8 0.27
9 0.27

>  <PUBCHEM_EFFECTIVE_ROTOR_COUNT>  (1) 
9

>  <PUBCHEM_PHARMACOPHORE_FEATURES>  (1) 
6
1 3 acceptor
1 4 acceptor
1 5 cation
1 6 donor
6 13 14 15 16 17 18 rings
6 20 21 22 23 24 25 rings

>  <PUBCHEM_HEAVY_ATOM_COUNT>  (1) 
25

>  <PUBCHEM_ATOM_DEF_STEREO_COUNT>  (1) 
0

>  <PUBCHEM_ATOM_UDEF_STEREO_COUNT>  (1) 
0

>  <PUBCHEM_BOND_DEF_STEREO_COUNT>  (1) 
0

>  <PUBCHEM_BOND_UDEF_STEREO_COUNT>  (1) 
0

>  <PUBCHEM_ISOTOPIC_ATOM_COUNT>  (1) 
0

>  <PUBCHEM_COMPONENT_COUNT>  (1) 
1

>  <PUBCHEM_CACTVS_TAUTO_COUNT>  (1) 
2

>  <PUBCHEM_CONFORMER_ID>  (1) 
0000C32200000001

>  <PUBCHEM_MMFF94_ENERGY>  (1) 
88.5329

>  <PUBCHEM_FEATURE_SELFOVERLAP>  (1) 
30.446

>  <PUBCHEM_SHAPE_FINGERPRINT>  (1) 
10 15 17749108910941934701
10165383 225 18411418415299820490
106641 1 17822015332393807089
10670039 82 14836127611817646147
11315181 36 18131350818210621293
11646440 116 18408047299231751649
12236239 1 18060420175945798359
12539765 74 17775295962169074412
12925494 130 18053940938138183184
13533116 47 18059010575599805282
13540713 4 17534333449430927655
13617811 41 17895489033733115558
14123256 10 12535347891792576597
14170010 4 18260550038931788173
14251764 18 18343864407096928350
14251764 46 18272369763001937278
14849402 71 18272370936024765129
14933364 13 16845292731228797113
15301273 46 16371005179052250954
15840311 113 18261677060025704628
15849732 13 18040154023923000167
20281389 69 18408038507185594984
21033648 29 18270109253580041418
21267235 1 17894915092852491708
21521721 280 18412545430980223513
21637258 2 13045940235338978065
21792934 111 18187916271189808348
22224240 67 18334293180052740275
23622692 88 17894912948983335485
24771293 8 18411701018998946764
2838139 119 18273210893776874100
3178227 256 18041288711786584697
335352 9 18410013243808317502
34797466 226 17704359861459643284
397830 11 17096381698698842729
4073 2 18341049721760346550
4325135 7 17418092114259843425
5758199 1 18413390934464195739
59682541 35 18187652423127626427
59755656 520 18271800233285765239

>  <PUBCHEM_SHAPE_MULTIPOLES>  (1) 
496.53
22.97
2.21
1.09
10.36
0.57
0.11
-7.46
4.22
-3.59
0.26
0.97
-0.33
-0.07

>  <PUBCHEM_SHAPE_SELFOVERLAP>  (1) 
1016.307

>  <PUBCHEM_SHAPE_VOLUME>  (1) 
289.2

>  <PUBCHEM_COORDINATE_TYPE>  (1) 
2
5
10

$$$$
