49973
     RDKit          3D

 17 19  0  0  0  0  0  0  0  0999 V2000
    4.3625    2.2976    0.0000 Br  0  0  0  0  0  0  0  0  0  0  0  0
   -4.3624    2.2979    0.0006 Br  0  0  0  0  0  0  0  0  0  0  0  0
    5.2096   -1.0476    0.0006 Br  0  0  0  0  0  0  0  0  0  0  0  0
   -5.2097   -1.0475    0.0006 Br  0  0  0  0  0  0  0  0  0  0  0  0
    0.0000   -1.8161    0.0001 O   0  0  0  0  0  0  0  0  0  0  0  0
    0.7128    0.3301   -0.0001 C   0  0  0  0  0  0  0  0  0  0  0  0
   -0.7128    0.3301   -0.0002 C   0  0  0  0  0  0  0  0  0  0  0  0
    1.0961   -1.0074   -0.0001 C   0  0  0  0  0  0  0  0  0  0  0  0
   -1.0961   -1.0076   -0.0001 C   0  0  0  0  0  0  0  0  0  0  0  0
    1.7186    1.3141    0.0000 C   0  0  0  0  0  0  0  0  0  0  0  0
   -1.7187    1.3140   -0.0002 C   0  0  0  0  0  0  0  0  0  0  0  0
    2.4207   -1.4411   -0.0002 C   0  0  0  0  0  0  0  0  0  0  0  0
   -2.4208   -1.4413   -0.0001 C   0  0  0  0  0  0  0  0  0  0  0  0
    3.0599    0.9083    0.0002 C   0  0  0  0  0  0  0  0  0  0  0  0
   -3.0601    0.9082   -0.0006 C   0  0  0  0  0  0  0  0  0  0  0  0
    3.4023   -0.4457   -0.0002 C   0  0  0  0  0  0  0  0  0  0  0  0
   -3.4023   -0.4460   -0.0002 C   0  0  0  0  0  0  0  0  0  0  0  0
  1 14  1  0
  2 15  1  0
  3 16  1  0
  4 17  1  0
  5  8  1  0
  5  9  1  0
  6  7  1  0
  6  8  2  0
  6 10  1  0
  7  9  2  0
  7 11  1  0
  8 12  1  0
  9 13  1  0
 10 14  2  0
 11 15  2  0
 12 16  2  0
 13 17  2  0
 14 16  1  0
 15 17  1  0
M  END
>  <PUBCHEM_COMPOUND_CID>  (1) 
49973

>  <PUBCHEM_CONFORMER_RMSD>  (1) 
0.4

>  <PUBCHEM_CONFORMER_DIVERSEORDER>  (1) 
1

>  <PUBCHEM_MMFF94_PARTIAL_CHARGES>  (1) 
19
1 -0.11
10 -0.15
11 -0.15
12 -0.15
13 -0.15
14 0.11
15 0.11
16 0.11
17 0.11
18 0.15
19 0.15
2 -0.11
20 0.15
21 0.15
3 -0.11
4 -0.11
5 -0.28
8 0.14
9 0.14

>  <PUBCHEM_EFFECTIVE_ROTOR_COUNT>  (1) 
0

>  <PUBCHEM_PHARMACOPHORE_FEATURES>  (1) 
8
1 1 hydrophobe
1 2 hydrophobe
1 3 hydrophobe
1 4 hydrophobe
1 5 acceptor
5 5 6 7 8 9 rings
6 6 8 10 12 14 16 rings
6 7 9 11 13 15 17 rings

>  <PUBCHEM_HEAVY_ATOM_COUNT>  (1) 
17

>  <PUBCHEM_ATOM_DEF_STEREO_COUNT>  (1) 
0

>  <PUBCHEM_ATOM_UDEF_STEREO_COUNT>  (1) 
0

>  <PUBCHEM_BOND_DEF_STEREO_COUNT>  (1) 
0

>  <PUBCHEM_BOND_UDEF_STEREO_COUNT>  (1) 
0

>  <PUBCHEM_ISOTOPIC_ATOM_COUNT>  (1) 
0

>  <PUBCHEM_COMPONENT_COUNT>  (1) 
1

>  <PUBCHEM_CACTVS_TAUTO_COUNT>  (1) 
1

>  <PUBCHEM_CONFORMER_ID>  (1) 
0000C33500000001

>  <PUBCHEM_MMFF94_ENERGY>  (1) 
35.9036

>  <PUBCHEM_FEATURE_SELFOVERLAP>  (1) 
40.799

>  <PUBCHEM_SHAPE_FINGERPRINT>  (1) 
10608611 8 18410853265400224324
10967382 1 18410574032401379142
11471102 20 18411134775042355718
12390115 104 18270699622299387281
12403259 226 18410568491894132460
12403259 415 18410570690912015812
12507560 40 18410293631245821632
13081056 2 18411419531136716628
13140716 1 18336264548355492040
13288520 33 18412546487616258543
13862211 1 18410569591405792711
15042514 8 18266462195134114179
15196674 1 18410855460128434629
15442244 35 18266740182137704106
15536298 74 18413108385840528540
16945 1 18412261705435569595
17802600 8 18410570686616567808
17804303 29 18410858741847166380
17834072 33 18341612641669413894
18186145 218 18040992930104928046
200 152 18059852861493253347
20510252 161 18342741823469483953
20645477 70 18342741814879633750
21267235 1 18410582781244902087
21452121 103 18342166809306486048
21501502 16 18410853265399899527
21652331 79 18410293657152781953
21709351 56 18410288082084700804
221490 88 18337116756199205690
23402539 116 18271237240376908653
23402655 69 18343017770343269061
23557571 272 18272940409811014287
23559900 14 18199466572040964758
2748010 2 18410577287981334415
3004659 81 18189061907083481478
335352 9 18338797797719092564
350125 39 18410295800130589505
3545911 37 18338237180149300860
4214541 1 18410855434638140737
474 4 17604434132020415812
4990 188 18130796628972496046
5104073 3 18409449180466785033
633830 44 18409725149516818310
69090 78 18342454867692672543
7364860 26 18341895212643383182
77779 3 18410857663446430124
90127 26 18334022691544259760
9709674 26 18412269423518544686
9981440 41 17398108739338595608

>  <PUBCHEM_SHAPE_MULTIPOLES>  (1) 
367.75
10.83
2.36
0.64
0
0.95
0
1.27
0
0
0
0
0.03
0

>  <PUBCHEM_SHAPE_SELFOVERLAP>  (1) 
763.092

>  <PUBCHEM_SHAPE_VOLUME>  (1) 
222.1

>  <PUBCHEM_COORDINATE_TYPE>  (1) 
2
5
10

$$$$
