49981
     RDKit          3D

 11 11  0  0  0  0  0  0  0  0999 V2000
    1.8364    0.0955    0.5431 O   0  0  0  0  0  0  0  0  0  0  0  0
    0.4458   -2.3070    0.0870 N   0  0  0  0  0  0  0  0  0  0  0  0
   -3.6500    0.2581   -0.3634 N   0  0  0  0  0  0  0  0  0  0  0  0
    0.4919    0.1190    0.3202 C   0  0  0  0  0  0  0  0  0  0  0  0
   -0.2171   -1.0603    0.0919 C   0  0  0  0  0  0  0  0  0  0  0  0
   -2.2592    0.2110   -0.1334 C   0  0  0  0  0  0  0  0  0  0  0  0
   -1.5927   -1.0142   -0.1349 C   0  0  0  0  0  0  0  0  0  0  0  0
   -0.1745    1.3444    0.3217 C   0  0  0  0  0  0  0  0  0  0  0  0
   -1.5501    1.3904    0.0949 C   0  0  0  0  0  0  0  0  0  0  0  0
    2.6572    0.8167   -0.3731 C   0  0  0  0  0  0  0  0  0  0  0  0
    4.0122    0.1465   -0.4539 C   0  0  0  0  0  0  0  0  0  0  0  0
  1  4  1  0
  1 10  1  0
  2  5  1  0
  3  6  1  0
  4  5  2  0
  4  8  1  0
  5  7  1  0
  6  7  2  0
  6  9  1  0
  8  9  2  0
 10 11  1  0
M  END
>  <PUBCHEM_COMPOUND_CID>  (1) 
49981

>  <PUBCHEM_CONFORMER_RMSD>  (1) 
0.4

>  <PUBCHEM_CONFORMER_DIVERSEORDER>  (1) 
1
11
9
12
2
10
6
8
3
4
5
7

>  <PUBCHEM_MMFF94_PARTIAL_CHARGES>  (1) 
17
1 -0.36
10 0.28
12 0.15
13 0.15
14 0.15
2 -0.9
20 0.4
21 0.4
22 0.4
23 0.4
3 -0.9
4 0.08
5 0.1
6 0.1
7 -0.15
8 -0.15
9 -0.15

>  <PUBCHEM_EFFECTIVE_ROTOR_COUNT>  (1) 
2

>  <PUBCHEM_PHARMACOPHORE_FEATURES>  (1) 
6
1 1 acceptor
1 2 cation
1 2 donor
1 3 cation
1 3 donor
6 4 5 6 7 8 9 rings

>  <PUBCHEM_HEAVY_ATOM_COUNT>  (1) 
11

>  <PUBCHEM_ATOM_DEF_STEREO_COUNT>  (1) 
0

>  <PUBCHEM_ATOM_UDEF_STEREO_COUNT>  (1) 
0

>  <PUBCHEM_BOND_DEF_STEREO_COUNT>  (1) 
0

>  <PUBCHEM_BOND_UDEF_STEREO_COUNT>  (1) 
0

>  <PUBCHEM_ISOTOPIC_ATOM_COUNT>  (1) 
0

>  <PUBCHEM_COMPONENT_COUNT>  (1) 
1

>  <PUBCHEM_CACTVS_TAUTO_COUNT>  (1) 
1

>  <PUBCHEM_CONFORMER_ID>  (1) 
0000C33D00000001

>  <PUBCHEM_MMFF94_ENERGY>  (1) 
52.4772

>  <PUBCHEM_FEATURE_SELFOVERLAP>  (1) 
30.446

>  <PUBCHEM_SHAPE_FINGERPRINT>  (1) 
12032990 46 18340773761827066379
12716758 59 18340486780781195824
12897270 3 18411135835604015076
13024252 1 12107780839237528705
13380535 76 18408603643140336947
14325111 11 18410294692361200112
14911166 2 18412820309251287781
14993402 34 18259702319671848436
15775835 57 17967534584123406572
16945 1 18341038671135911537
19021347 11 18336827485619449826
193761 8 17834957468921164809
20201158 50 17917720106152087334
20645476 183 17895199956094577782
20653085 51 17677059056693634668
21040471 1 18411689993838340531
21293036 1 18411135861426546997
21501502 16 18124030127041031785
23235685 24 18408598162951639933
23402539 116 18343293778095650412
23402655 69 18196352759991730893
23463225 33 18262512581620130226
23552423 10 18120933897907438131
23559900 14 18272370910871444256
2748010 2 18051118491699250825
5084963 1 18131070450048609048
528862 383 18115298969471402474
528886 8 18410569604379767921

>  <PUBCHEM_SHAPE_MULTIPOLES>  (1) 
210.54
5.11
1.64
0.68
2.89
0.66
0
-0.98
1.2
-0.23
-0.09
0.09
-0.04
-0.08

>  <PUBCHEM_SHAPE_SELFOVERLAP>  (1) 
430.351

>  <PUBCHEM_SHAPE_VOLUME>  (1) 
122.5

>  <PUBCHEM_COORDINATE_TYPE>  (1) 
2
5
10

$$$$
