49992
     RDKit          3D

 15 15  0  0  1  0  0  0  0  0999 V2000
    2.4932    3.0114   -0.3688 Cl  0  0  0  0  0  0  0  0  0  0  0  0
    3.5368   -2.1174    0.9495 Cl  0  0  0  0  0  0  0  0  0  0  0  0
   -0.9303   -0.6948   -1.0276 O   0  0  0  0  0  0  0  0  0  0  0  0
   -2.1179    1.0626    1.7232 O   0  0  0  0  0  0  0  0  0  0  0  0
   -2.9087    1.9621   -0.2068 O   0  0  0  0  0  0  0  0  0  0  0  0
   -1.7841   -1.2885   -0.0515 C   0  0  0  0  0  0  0  0  0  0  0  0
   -3.0353   -0.4285    0.1002 C   0  0  0  0  0  0  0  0  0  0  0  0
   -2.1004   -2.7041   -0.5138 C   0  0  0  0  0  0  0  0  0  0  0  0
    0.3210   -0.3325   -0.6087 C   0  0  0  0  0  0  0  0  0  0  0  0
   -2.7006    0.9854    0.5018 C   0  0  0  0  0  0  0  0  0  0  0  0
    1.1856   -1.2974   -0.1023 C   0  0  0  0  0  0  0  0  0  0  0  0
    0.7188    0.9980   -0.6935 C   0  0  0  0  0  0  0  0  0  0  0  0
    1.9946    1.3675   -0.2672 C   0  0  0  0  0  0  0  0  0  0  0  0
    2.4615   -0.9281    0.3240 C   0  0  0  0  0  0  0  0  0  0  0  0
    2.8660    0.4043    0.2416 C   0  0  0  0  0  0  0  0  0  0  0  0
  1 13  1  0
  2 14  1  0
  3  6  1  0
  3  9  1  0
  4 10  1  0
  5 10  2  0
  6  7  1  0
  6  8  1  0
  7 10  1  0
  9 11  2  0
  9 12  1  0
 11 14  1  0
 12 13  2  0
 13 15  1  0
 14 15  2  0
M  END
>  <PUBCHEM_COMPOUND_CID>  (1) 
49992

>  <PUBCHEM_CONFORMER_RMSD>  (1) 
0.6

>  <PUBCHEM_CONFORMER_DIVERSEORDER>  (1) 
1
35
58
4
61
43
59
31
38
41
45
57
34
24
19
55
36
26
44
42
60
54
29
22
65
25
50
23
13
20
64
18
28
30
17
52
39
51
33
2
46
10
27
21
48
37
62
11
9
15
8
47
16
49
40
7
53
12
6
56
3
32
63
5
14

>  <PUBCHEM_MMFF94_PARTIAL_CHARGES>  (1) 
18
1 -0.18
10 0.66
11 -0.15
12 -0.15
13 0.18
14 0.18
15 -0.15
2 -0.18
22 0.15
23 0.15
24 0.15
25 0.5
3 -0.36
4 -0.65
5 -0.57
6 0.28
7 0.06
9 0.08

>  <PUBCHEM_EFFECTIVE_ROTOR_COUNT>  (1) 
4

>  <PUBCHEM_PHARMACOPHORE_FEATURES>  (1) 
5
1 3 acceptor
1 4 acceptor
1 5 acceptor
3 4 5 10 anion
6 9 11 12 13 14 15 rings

>  <PUBCHEM_HEAVY_ATOM_COUNT>  (1) 
15

>  <PUBCHEM_ATOM_DEF_STEREO_COUNT>  (1) 
0

>  <PUBCHEM_ATOM_UDEF_STEREO_COUNT>  (1) 
1

>  <PUBCHEM_BOND_DEF_STEREO_COUNT>  (1) 
0

>  <PUBCHEM_BOND_UDEF_STEREO_COUNT>  (1) 
0

>  <PUBCHEM_ISOTOPIC_ATOM_COUNT>  (1) 
0

>  <PUBCHEM_COMPONENT_COUNT>  (1) 
1

>  <PUBCHEM_CACTVS_TAUTO_COUNT>  (1) 
1

>  <PUBCHEM_CONFORMER_ID>  (1) 
0000C34800000001

>  <PUBCHEM_MMFF94_ENERGY>  (1) 
35.1503

>  <PUBCHEM_FEATURE_SELFOVERLAP>  (1) 
25.43

>  <PUBCHEM_SHAPE_FINGERPRINT>  (1) 
12202030 40 15936412242731773730
12251169 10 18410289207477005514
12346645 44 18121220046051335484
12507560 14 18122335779306026827
12553582 1 18118109287296879394
12696612 119 18409168809581349452
14144814 61 18410575071799464447
14178342 30 18338779200621873482
14787075 74 17043732889856250775
15375462 189 17750793247240288802
15442244 35 18410007711167850710
15775835 57 18269569388696469017
16945 1 18340774723693830646
17041 49 18336824195948710354
18511873 20 18337670793678568130
192875 21 18199171915714729077
201361 129 18336552732583107532
20510252 161 17256816018958826600
20559304 39 18340207487426344752
20671657 1 18408892858127831708
21501502 16 18410854403576880063
21524375 3 17981613976715076628
22094290 62 18411702049838024420
22445834 79 18335420183676435626
23402539 116 18130772440170463119
23557571 272 16128655284138687007
2748010 2 17474387976626108670
305870 269 18264208183105777212
4175511 71 18265059037601607004
57177213 63 18120094150238883100
6992083 37 18339360743092768146
7097593 13 18409163299101645226
7364860 26 18339926012855783724
74978 22 18410856559719060534
7832392 63 18411417298001545094

>  <PUBCHEM_SHAPE_MULTIPOLES>  (1) 
294.82
5.8
3
1
0.44
0.44
-0.24
-0.1
-1.16
-1.18
0.06
0.23
0.03
-1.33

>  <PUBCHEM_SHAPE_SELFOVERLAP>  (1) 
587.581

>  <PUBCHEM_SHAPE_VOLUME>  (1) 
176.4

>  <PUBCHEM_COORDINATE_TYPE>  (1) 
2
5
10

$$$$
