49993
     RDKit          3D

 13 12  0  0  0  0  0  0  0  0999 V2000
   -0.2386   -0.8618   -0.1865 O   0  0  0  0  0  0  0  0  0  0  0  0
   -2.0626   -1.7760    0.8804 O   0  0  0  0  0  0  0  0  0  0  0  0
    1.8884   -1.9188   -0.5850 C   0  0  0  0  0  0  0  0  0  0  0  0
    0.4933   -2.0647    0.0106 C   0  0  0  0  0  0  0  0  0  0  0  0
    2.6646   -0.8175    0.0805 C   0  0  0  0  0  0  0  0  0  0  0  0
    3.9206    1.3524    0.0975 C   0  0  0  0  0  0  0  0  0  0  0  0
    3.1384    0.2579   -0.5661 C   0  0  0  0  0  0  0  0  0  0  0  0
   -2.1529    0.4707    0.0134 C   0  0  0  0  0  0  0  0  0  0  0  0
    3.0058    2.4512    0.6155 C   0  0  0  0  0  0  0  0  0  0  0  0
   -1.5143   -0.8497    0.3003 C   0  0  0  0  0  0  0  0  0  0  0  0
   -1.2809    1.6908   -0.0197 C   0  0  0  0  0  0  0  0  0  0  0  0
   -3.4869    0.4518   -0.1635 C   0  0  0  0  0  0  0  0  0  0  0  0
   -4.3750    1.6137   -0.4774 C   0  0  0  0  0  0  0  0  0  0  0  0
  1  4  1  0
  1 10  1  0
  2 10  2  0
  3  4  1  0
  3  5  1  0
  5  7  2  0
  6  7  1  0
  6  9  1  0
  8 10  1  0
  8 11  1  0
  8 12  2  0
 12 13  1  0
M  END
>  <PUBCHEM_COMPOUND_CID>  (1) 
49993

>  <PUBCHEM_CONFORMER_RMSD>  (1) 
0.8

>  <PUBCHEM_CONFORMER_DIVERSEORDER>  (1) 
1
64
610
647
362
329
569
342
599
15
79
458
365
626
3
19
564
20
407
523
203
522
623
8
396
357
382
137
296
30
210
52
60
48
66
286
431
29
40
319
5
303
348
209
43
263
542
101
45
607
65
381
428
540
55
368
108
317
412
46
260
34
39
9
577
450
27
7
155
421
375
80
602
299
241
47
496
103
544
31
302
50
418
227
472
86
138
435
236
366
295
245
23
24
251
78
28
118
225
288
153
282
266
73
4

>  <PUBCHEM_MMFF94_PARTIAL_CHARGES>  (1) 
15
1 -0.43
10 0.71
11 0.14
12 -0.29
13 0.14
18 0.15
2 -0.57
21 0.15
28 0.15
3 0.14
4 0.28
5 -0.29
6 0.14
7 -0.29
8 -0.12

>  <PUBCHEM_EFFECTIVE_ROTOR_COUNT>  (1) 
6

>  <PUBCHEM_PHARMACOPHORE_FEATURES>  (1) 
4
1 11 hydrophobe
1 13 hydrophobe
1 2 acceptor
1 9 hydrophobe

>  <PUBCHEM_HEAVY_ATOM_COUNT>  (1) 
13

>  <PUBCHEM_ATOM_DEF_STEREO_COUNT>  (1) 
0

>  <PUBCHEM_ATOM_UDEF_STEREO_COUNT>  (1) 
0

>  <PUBCHEM_BOND_DEF_STEREO_COUNT>  (1) 
0

>  <PUBCHEM_BOND_UDEF_STEREO_COUNT>  (1) 
2

>  <PUBCHEM_ISOTOPIC_ATOM_COUNT>  (1) 
0

>  <PUBCHEM_COMPONENT_COUNT>  (1) 
1

>  <PUBCHEM_CACTVS_TAUTO_COUNT>  (1) 
1

>  <PUBCHEM_CONFORMER_ID>  (1) 
0000C34900000001

>  <PUBCHEM_MMFF94_ENERGY>  (1) 
10.5087

>  <PUBCHEM_FEATURE_SELFOVERLAP>  (1) 
20.298

>  <PUBCHEM_SHAPE_FINGERPRINT>  (1) 
10498660 4 18337961181060889380
10608611 8 18409450262798347854
122479 349 18335421278782222307
13618510 140 18413109480893860088
13897977 150 18411699897964522081
14250199 8 18199754647854602991
15775835 57 18342459261649600420
17802600 8 18264204712645283316
17834072 32 18266179620534895604
1798214 55 18412261778903843720
18186145 218 17987816205842873650
20449540 30 18201726201379265483
20606313 2 18340767031618348014
20621476 13 18412820313425630656
21524375 3 18410855469240738654
22096605 113 18341611490665800583
22959321 54 18340206297562382113
23557571 272 18339095889623870246
23559900 14 18267581304032893690
351380 180 18412257316411282398
43658 37 18271515476848128992
449060 62 18341614767778484501
7364860 26 18267867186099490382
8050 44 18410007732537107828

>  <PUBCHEM_SHAPE_MULTIPOLES>  (1) 
255.8
7.69
2.68
0.76
1.66
0.16
-0.01
4.86
0.63
-1.27
-0.26
-0.02
-0.04
0.96

>  <PUBCHEM_SHAPE_SELFOVERLAP>  (1) 
480.109

>  <PUBCHEM_SHAPE_VOLUME>  (1) 
159.2

>  <PUBCHEM_COORDINATE_TYPE>  (1) 
2
5
10

$$$$
