49990
     RDKit          3D

 18 18  0  0  0  0  0  0  0  0999 V2000
    5.8175   -1.7758   -0.9904 S   0  0  0  0  0  0  0  0  0  0  0  0
   -1.9831   -1.1694   -1.3467 O   0  0  0  0  0  0  0  0  0  0  0  0
    4.5981    0.8695    0.7098 O   0  0  0  0  0  0  0  0  0  0  0  0
   -4.0571   -0.8076    1.5546 O   0  0  0  0  0  0  0  0  0  0  0  0
   -6.0584   -1.1192    0.5320 O   0  0  0  0  0  0  0  0  0  0  0  0
    2.8499   -0.6299    0.2230 N   0  0  0  0  0  0  0  0  0  0  0  0
   -3.0334    0.6467   -0.3591 N   0  0  0  0  0  0  0  0  0  0  0  0
   -0.6058    0.4917   -0.4291 C   0  0  0  0  0  0  0  0  0  0  0  0
    1.7439    0.2039    0.0542 C   0  0  0  0  0  0  0  0  0  0  0  0
    0.4995   -0.3424   -0.2604 C   0  0  0  0  0  0  0  0  0  0  0  0
   -0.4667    1.8720   -0.2831 C   0  0  0  0  0  0  0  0  0  0  0  0
    1.8828    1.5843    0.2000 C   0  0  0  0  0  0  0  0  0  0  0  0
   -1.9032   -0.0771   -0.7570 C   0  0  0  0  0  0  0  0  0  0  0  0
    0.7775    2.4183    0.0314 C   0  0  0  0  0  0  0  0  0  0  0  0
   -4.3891    0.2026   -0.5907 C   0  0  0  0  0  0  0  0  0  0  0  0
    4.1676   -0.2680    0.5378 C   0  0  0  0  0  0  0  0  0  0  0  0
    5.0924   -1.4623    0.6373 C   0  0  0  0  0  0  0  0  0  0  0  0
   -4.9322   -0.6374    0.5363 C   0  0  0  0  0  0  0  0  0  0  0  0
  1 17  1  0
  2 13  2  0
  3 16  2  0
  4 18  1  0
  5 18  2  0
  6  9  1  0
  6 16  1  0
  7 13  1  0
  7 15  1  0
  8 10  2  0
  8 11  1  0
  8 13  1  0
  9 10  1  0
  9 12  2  0
 11 14  2  0
 12 14  1  0
 15 18  1  0
 16 17  1  0
M  END
>  <PUBCHEM_COMPOUND_CID>  (1) 
49990

>  <PUBCHEM_CONFORMER_RMSD>  (1) 
0.8

>  <PUBCHEM_CONFORMER_DIVERSEORDER>  (1) 
1
32
9
42
30
62
56
27
16
45
26
54
15
60
43
29
2
19
31
3
51
61
40
18
20
12
24
4
25
17
36
47
5
55
14
11
59
63
33
22
57
38
13
28
6
35
8
58
50
46
44
52
10
41
49
37
21
39
23
48
34
7
53

>  <PUBCHEM_MMFF94_PARTIAL_CHARGES>  (1) 
26
1 -0.41
10 -0.15
11 -0.15
12 -0.15
13 0.54
14 -0.15
15 0.36
16 0.57
17 0.29
18 0.66
19 0.15
2 -0.57
20 0.15
21 0.15
22 0.15
23 0.37
24 0.37
29 0.18
3 -0.57
30 0.5
4 -0.65
5 -0.57
6 -0.55
7 -0.73
8 0.09
9 0.12

>  <PUBCHEM_EFFECTIVE_ROTOR_COUNT>  (1) 
7

>  <PUBCHEM_PHARMACOPHORE_FEATURES>  (1) 
8
1 2 acceptor
1 3 acceptor
1 4 acceptor
1 5 acceptor
1 6 donor
1 7 donor
3 4 5 18 anion
6 8 9 10 11 12 14 rings

>  <PUBCHEM_HEAVY_ATOM_COUNT>  (1) 
18

>  <PUBCHEM_ATOM_DEF_STEREO_COUNT>  (1) 
0

>  <PUBCHEM_ATOM_UDEF_STEREO_COUNT>  (1) 
0

>  <PUBCHEM_BOND_DEF_STEREO_COUNT>  (1) 
0

>  <PUBCHEM_BOND_UDEF_STEREO_COUNT>  (1) 
0

>  <PUBCHEM_ISOTOPIC_ATOM_COUNT>  (1) 
0

>  <PUBCHEM_COMPONENT_COUNT>  (1) 
1

>  <PUBCHEM_CACTVS_TAUTO_COUNT>  (1) 
4

>  <PUBCHEM_CONFORMER_ID>  (1) 
0000C34600000001

>  <PUBCHEM_MMFF94_ENERGY>  (1) 
44.9592

>  <PUBCHEM_FEATURE_SELFOVERLAP>  (1) 
40.656

>  <PUBCHEM_SHAPE_FINGERPRINT>  (1) 
11128504 68 13623531255567998354
11543360 7 15574716880953269862
12032990 46 18335699425407347860
12236239 1 17775283885227393947
12251169 10 18201998858777587253
12553582 1 18338499877349775310
12596602 18 17704070724498971819
12633257 1 16558743533666816466
13551218 46 18059574650681515438
13675066 3 18410283731304175261
13740256 8 18261114083980238523
13862211 1 18411128117780146222
14123256 34 18261683622645912459
1420 363 18334013878419087154
14251732 14 14996577225886361321
14251764 30 18409169887618712174
14252887 29 18272653428781272974
14341114 176 18411140264042208641
14455015 7 18335702728062988778
14739800 52 16414342562857537728
15375462 189 18335688443123049178
15501527 24 11818995197176976497
15527383 91 18342455980041632113
1813 80 18334021566531918860
18785283 64 17825384343638965292
19141452 34 17703782635230303942
193927 3 18334583416910115866
20028762 73 18200590418985758015
21029758 27 18334857199400368444
21267235 1 18412266108473243902
21637258 2 17168133551004641091
21682296 61 18342743961888768407
22182313 1 17844532093448424524
22950370 63 18409732850535565606
2297311 6 18341900628502243782
231179 274 11887957661492770104
23402539 116 14045733825314214449
23559900 14 17531246223086427301
25147074 1 17843676918589573437
2767999 5 9223225239568895326
2838139 119 12823011967937807203
4072396 5 11023830531379593822
4463277 17 18410854348117098404
465052 167 18412548712752241854
5104073 3 17774149248877439507
53917941 68 8430017725426942648
59682541 52 12685368497430407810
7495541 125 17167863097225300156
8863177 126 18115314504458017043

>  <PUBCHEM_SHAPE_MULTIPOLES>  (1) 
340.84
13.11
1.92
1.02
0.77
0.83
-0.02
-8.99
-1.99
-1.19
0.08
0.24
-0.33
0.98

>  <PUBCHEM_SHAPE_SELFOVERLAP>  (1) 
692.574

>  <PUBCHEM_SHAPE_VOLUME>  (1) 
198.5

>  <PUBCHEM_COORDINATE_TYPE>  (1) 
2
5
10

$$$$
