50000
     RDKit          3D

 19 19  0  0  1  0  0  0  0  0999 V2000
    0.6083    1.4588   -1.1621 O   0  0  0  0  0  0  0  0  0  0  0  0
   -2.3114    2.2701    1.5751 O   0  0  0  0  0  0  0  0  0  0  0  0
    3.1700    0.6208   -1.1071 O   0  0  0  0  0  0  0  0  0  0  0  0
   -3.3784   -1.5663   -2.1998 O   0  0  0  0  0  0  0  0  0  0  0  0
   -2.1655   -2.5350   -0.5450 O   0  0  0  0  0  0  0  0  0  0  0  0
   -1.2784   -0.1106    0.4456 N   0  0  0  0  0  0  0  0  0  0  0  0
    2.7344   -1.1454    0.3297 N   0  0  0  0  0  0  0  0  0  0  0  0
    1.8445   -1.8657    1.0716 N   0  0  0  0  0  0  0  0  0  0  0  0
    0.0569   -0.3342    0.3152 C   0  0  0  0  0  0  0  0  0  0  0  0
   -1.9255   -0.0837    1.7538 C   0  0  0  0  0  0  0  0  0  0  0  0
   -2.1732   -0.1333   -0.7074 C   0  0  0  0  0  0  0  0  0  0  0  0
    0.9459    0.3553   -0.4050 C   0  0  0  0  0  0  0  0  0  0  0  0
   -1.7437    1.2733    2.4148 C   0  0  0  0  0  0  0  0  0  0  0  0
    0.6139   -1.4798    1.0547 C   0  0  0  0  0  0  0  0  0  0  0  0
    2.3810   -0.0392   -0.4298 C   0  0  0  0  0  0  0  0  0  0  0  0
   -2.5583   -1.5295   -1.1240 C   0  0  0  0  0  0  0  0  0  0  0  0
    0.7193    2.6438   -0.3985 C   0  0  0  0  0  0  0  0  0  0  0  0
    4.1046   -1.6270    0.3874 C   0  0  0  0  0  0  0  0  0  0  0  0
    0.3555    3.8275   -1.2693 C   0  0  0  0  0  0  0  0  0  0  0  0
  1 12  1  0
  1 17  1  0
  2 13  1  0
  3 15  2  0
  4 16  1  0
  5 16  2  0
  6  9  1  0
  6 10  1  0
  6 11  1  0
  7  8  1  0
  7 15  1  0
  7 18  1  0
  8 14  2  0
  9 12  2  0
  9 14  1  0
 10 13  1  0
 11 16  1  0
 12 15  1  0
 17 19  1  0
M  END
>  <PUBCHEM_COMPOUND_CID>  (1) 
50000

>  <PUBCHEM_CONFORMER_RMSD>  (1) 
0.8

>  <PUBCHEM_CONFORMER_DIVERSEORDER>  (1) 
2
89
64
9
90
67
69
74
83
71
43
10
29
62
47
38
45
5
82
56
23
18
19
7
28
24
16
21
39
55
58
40
14
68
42
91
4
34
80
88
72
30
73
41
66
63
81
57
3
48
52
75
84
36
60
37
76
65
61
49
26
25
59
33
11
77
31
17
20
51
15
87
50
70
53
32
13
86
6
54
35
46
12
1
22
85
78
8
27
79
44

>  <PUBCHEM_MMFF94_PARTIAL_CHARGES>  (1) 
21
1 -0.36
10 0.37
11 0.43
12 0.09
13 0.28
14 0.38
15 0.62
16 0.66
17 0.28
18 0.3
2 -0.68
26 0.06
3 -0.57
32 0.4
36 0.5
4 -0.65
5 -0.57
6 -0.84
7 -0.3
8 -0.51
9 0.11

>  <PUBCHEM_EFFECTIVE_ROTOR_COUNT>  (1) 
7

>  <PUBCHEM_PHARMACOPHORE_FEATURES>  (1) 
10
1 1 acceptor
1 2 acceptor
1 2 donor
1 3 acceptor
1 4 acceptor
1 5 acceptor
1 6 cation
1 8 acceptor
3 4 5 16 anion
6 7 8 9 12 14 15 rings

>  <PUBCHEM_HEAVY_ATOM_COUNT>  (1) 
19

>  <PUBCHEM_ATOM_DEF_STEREO_COUNT>  (1) 
0

>  <PUBCHEM_ATOM_UDEF_STEREO_COUNT>  (1) 
0

>  <PUBCHEM_BOND_DEF_STEREO_COUNT>  (1) 
0

>  <PUBCHEM_BOND_UDEF_STEREO_COUNT>  (1) 
0

>  <PUBCHEM_ISOTOPIC_ATOM_COUNT>  (1) 
0

>  <PUBCHEM_COMPONENT_COUNT>  (1) 
1

>  <PUBCHEM_CACTVS_TAUTO_COUNT>  (1) 
1

>  <PUBCHEM_CONFORMER_ID>  (1) 
0000C35000000002

>  <PUBCHEM_MMFF94_ENERGY>  (1) 
50.0965

>  <PUBCHEM_FEATURE_SELFOVERLAP>  (1) 
50.815

>  <PUBCHEM_SHAPE_FINGERPRINT>  (1) 
11578080 2 18055603236104311385
12400797 292 18050841418700288447
13140716 1 17968396597340475898
13294875 104 15794500497696398585
13898156 1 18058187161670115403
15852999 172 17398945463001579044
16945 1 18118118306142047230
18219364 16 17462298133335505604
19010151 120 18336531768752757686
19765921 60 17404300088997402205
20511035 2 16962391552525753402
20600515 1 17907252789536330219
20602899 9 17122233115269009679
20671657 53 18337935887760996287
21197605 99 17396711882920062249
22112679 90 18340776952918994116
23419403 2 17124457650730858081
23526113 38 16805320041234344656
23598291 2 18342470235154060726
25 1 16371830860687159055
2748010 2 17386015013249012546
3286 77 17460628967357501281
68419 9 17986698015122733089
6992083 37 18269567056412786449

>  <PUBCHEM_SHAPE_MULTIPOLES>  (1) 
346.72
5.01
3.32
1.91
2.57
3.16
0.5
-3.09
-0.65
-0.16
-1.05
-2
0.2
-2.21

>  <PUBCHEM_SHAPE_SELFOVERLAP>  (1) 
700.758

>  <PUBCHEM_SHAPE_VOLUME>  (1) 
203.1

>  <PUBCHEM_COORDINATE_TYPE>  (1) 
2
5
10

$$$$
