5003
     RDKit          3D

 39 41  0  0  0  0  0  0  0  0999 V2000
   -1.7172   -1.1043    0.5531 O   0  0  0  0  0  0  0  0  0  0  0  0
    6.1346   -0.5279   -1.6002 O   0  0  0  0  0  0  0  0  0  0  0  0
    3.5048    3.9324   -0.3945 O   0  0  0  0  0  0  0  0  0  0  0  0
    1.2680   -1.4204    3.6311 O   0  0  0  0  0  0  0  0  0  0  0  0
    1.7020    2.5866   -0.7164 O   0  0  0  0  0  0  0  0  0  0  0  0
    3.4052   -0.7088    3.3298 O   0  0  0  0  0  0  0  0  0  0  0  0
   -2.1916    0.8398   -4.1824 O   0  0  0  0  0  0  0  0  0  0  0  0
   -2.2925    3.7616    1.6356 O   0  0  0  0  0  0  0  0  0  0  0  0
   -1.2899   -0.1205   -2.3304 O   0  0  0  0  0  0  0  0  0  0  0  0
   -4.1852    3.1867    0.5166 O   0  0  0  0  0  0  0  0  0  0  0  0
    2.5803    0.9215    1.2812 N   0  0  0  0  0  0  0  0  0  0  0  0
   -3.0353    1.0659   -0.6671 N   0  0  0  0  0  0  0  0  0  0  0  0
    1.0262   -1.2095    0.4009 N   0  0  0  0  0  0  0  0  0  0  0  0
    3.0679   -0.0028    0.3232 C   0  0  0  0  0  0  0  0  0  0  0  0
    2.2677   -1.0610   -0.0988 C   0  0  0  0  0  0  0  0  0  0  0  0
    2.7981   -1.9547   -1.0527 C   0  0  0  0  0  0  0  0  0  0  0  0
   -3.7548   -0.0248   -0.1318 C   0  0  0  0  0  0  0  0  0  0  0  0
    0.2814   -2.2510   -0.0358 C   0  0  0  0  0  0  0  0  0  0  0  0
    4.3605    0.1817   -0.1741 C   0  0  0  0  0  0  0  0  0  0  0  0
    4.0981   -1.7693   -1.5531 C   0  0  0  0  0  0  0  0  0  0  0  0
   -3.0848   -1.0902    0.4695 C   0  0  0  0  0  0  0  0  0  0  0  0
   -1.0878   -2.3795    0.5433 C   0  0  0  0  0  0  0  0  0  0  0  0
    3.0391    2.2923    1.2674 C   0  0  0  0  0  0  0  0  0  0  0  0
    1.6111    0.5014    2.2684 C   0  0  0  0  0  0  0  0  0  0  0  0
    4.8764   -0.7024   -1.1135 C   0  0  0  0  0  0  0  0  0  0  0  0
    1.9930   -3.0200   -1.4779 C   0  0  0  0  0  0  0  0  0  0  0  0
    0.7135   -3.1758   -0.9647 C   0  0  0  0  0  0  0  0  0  0  0  0
   -5.1475   -0.0301   -0.2072 C   0  0  0  0  0  0  0  0  0  0  0  0
   -3.1453    1.3965   -2.0731 C   0  0  0  0  0  0  0  0  0  0  0  0
   -2.1899    1.8753    0.1866 C   0  0  0  0  0  0  0  0  0  0  0  0
   -5.8704   -1.1008    0.3188 C   0  0  0  0  0  0  0  0  0  0  0  0
   -3.8076   -2.1611    0.9955 C   0  0  0  0  0  0  0  0  0  0  0  0
   -5.2004   -2.1663    0.9202 C   0  0  0  0  0  0  0  0  0  0  0  0
    2.6656    2.9260   -0.0420 C   0  0  0  0  0  0  0  0  0  0  0  0
    2.2063   -0.5876    3.1141 C   0  0  0  0  0  0  0  0  0  0  0  0
   -7.3595   -1.1072    0.2368 C   0  0  0  0  0  0  0  0  0  0  0  0
   -2.1107    0.6282   -2.8445 C   0  0  0  0  0  0  0  0  0  0  0  0
   -3.0039    2.9929    0.7729 C   0  0  0  0  0  0  0  0  0  0  0  0
    6.8746    0.5872   -1.1044 C   0  0  0  0  0  0  0  0  0  0  0  0
  1 21  1  0
  1 22  1  0
  2 25  1  0
  2 39  1  0
  3 34  1  0
  4 35  1  0
  5 34  2  0
  6 35  2  0
  7 37  1  0
  8 38  1  0
  9 37  2  0
 10 38  2  0
 11 14  1  0
 11 23  1  0
 11 24  1  0
 12 17  1  0
 12 29  1  0
 12 30  1  0
 13 15  2  0
 13 18  1  0
 14 15  1  0
 14 19  2  0
 15 16  1  0
 16 20  1  0
 16 26  2  0
 17 21  2  0
 17 28  1  0
 18 22  1  0
 18 27  2  0
 19 25  1  0
 20 25  2  0
 21 32  1  0
 23 34  1  0
 24 35  1  0
 26 27  1  0
 28 31  2  0
 29 37  1  0
 30 38  1  0
 31 33  1  0
 31 36  1  0
 32 33  2  0
M  END
>  <PUBCHEM_COMPOUND_CID>  (1) 
5003

>  <PUBCHEM_CONFORMER_RMSD>  (1) 
1.2

>  <PUBCHEM_CONFORMER_DIVERSEORDER>  (1) 
1
20
43
27
10
15
8
42
28
44
3
48
36
29
25
37
31
23
33
45
41
47
4
7
34
35
30
12
17
22
46
38
24
2
39
14
13
40
21
9
32
6
26
16
5
19
11
18

>  <PUBCHEM_MMFF94_PARTIAL_CHARGES>  (1) 
49
1 -0.36
10 -0.57
11 -0.84
12 -0.84
13 -0.62
14 0.1
15 0.31
17 0.1
18 0.17
19 -0.15
2 -0.36
20 -0.15
21 0.08
22 0.42
23 0.43
24 0.43
25 0.08
26 -0.15
27 -0.15
28 -0.15
29 0.43
3 -0.65
30 0.43
31 -0.14
32 -0.15
33 -0.15
34 0.66
35 0.66
36 0.14
37 0.66
38 0.66
39 0.28
4 -0.65
40 0.15
41 0.15
48 0.15
49 0.15
5 -0.57
50 0.15
55 0.15
56 0.15
6 -0.57
63 0.5
64 0.5
65 0.5
66 0.5
7 -0.65
8 -0.65
9 -0.57

>  <PUBCHEM_EFFECTIVE_ROTOR_COUNT>  (1) 
14

>  <PUBCHEM_PHARMACOPHORE_FEATURES>  (1) 
20
1 1 acceptor
1 10 acceptor
1 11 cation
1 12 cation
1 13 acceptor
1 2 acceptor
1 3 acceptor
1 4 acceptor
1 5 acceptor
1 6 acceptor
1 7 acceptor
1 8 acceptor
1 9 acceptor
3 3 5 34 anion
3 4 6 35 anion
3 7 9 37 anion
3 8 10 38 anion
6 13 15 16 18 26 27 rings
6 14 15 16 19 20 25 rings
6 17 21 28 31 32 33 rings

>  <PUBCHEM_HEAVY_ATOM_COUNT>  (1) 
39

>  <PUBCHEM_ATOM_DEF_STEREO_COUNT>  (1) 
0

>  <PUBCHEM_ATOM_UDEF_STEREO_COUNT>  (1) 
0

>  <PUBCHEM_BOND_DEF_STEREO_COUNT>  (1) 
0

>  <PUBCHEM_BOND_UDEF_STEREO_COUNT>  (1) 
0

>  <PUBCHEM_ISOTOPIC_ATOM_COUNT>  (1) 
0

>  <PUBCHEM_COMPONENT_COUNT>  (1) 
1

>  <PUBCHEM_CACTVS_TAUTO_COUNT>  (1) 
1

>  <PUBCHEM_CONFORMER_ID>  (1) 
0000138B00000001

>  <PUBCHEM_MMFF94_ENERGY>  (1) 
150.6018

>  <PUBCHEM_FEATURE_SELFOVERLAP>  (1) 
101.781

>  <PUBCHEM_SHAPE_FINGERPRINT>  (1) 
10165383 225 18340778108213170710
11595378 159 17385996269943511827
12107698 1 18334859458621406618
12156800 1 16910086886475726621
13402501 40 18408892853453257790
13726171 33 18187650146220810396
14279260 333 17768821870908613894
150020 26 17488183673594847741
15721738 202 18340778108128475809
15975801 100 17385719171653903966
17921350 177 18116125875635693558
17974551 9 17485360071942790129
18608769 82 18342462564406000759
20764821 26 18127677425942811190
21033648 29 17917417701319857971
22121540 332 17916853657057416864
221357 26 18202289082328516099
23536364 44 17630627638720277542
23559900 14 18411702080308827983
350125 39 18340496637367188622
354706 132 18119831130858171244
46194498 28 18341904021115009262
469060 322 16878238484874743599
5776283 40 18267880556707151340
6823239 73 18411699872268558592

>  <PUBCHEM_SHAPE_MULTIPOLES>  (1) 
728.97
13.3
3.97
2.88
4.79
2.67
-0.2
-1.08
1.84
0.17
-0.11
-1.04
-0.02
1.37

>  <PUBCHEM_SHAPE_SELFOVERLAP>  (1) 
1565.815

>  <PUBCHEM_SHAPE_VOLUME>  (1) 
399.7

>  <PUBCHEM_COORDINATE_TYPE>  (1) 
2
5
10

$$$$
