5005
     RDKit          3D

 32 34  0  0  1  0  0  0  0  0999 V2000
    0.6396   -2.7526    0.6177 O   0  0  0  0  0  0  0  0  0  0  0  0
   -3.6548   -3.1705    1.8029 O   0  0  0  0  0  0  0  0  0  0  0  0
   -3.0496   -3.1697   -0.3948 O   0  0  0  0  0  0  0  0  0  0  0  0
    4.1579   -0.0793    1.0189 O   0  0  0  0  0  0  0  0  0  0  0  0
    4.8330   -1.7336   -0.4377 O   0  0  0  0  0  0  0  0  0  0  0  0
   -1.1282   -1.3677   -0.0091 N   0  0  0  0  0  0  0  0  0  0  0  0
    2.1973   -1.8508   -1.3121 N   0  0  0  0  0  0  0  0  0  0  0  0
   -1.9225   -1.7092    1.1727 C   0  0  0  0  0  0  0  0  0  0  0  0
   -2.5834   -0.4909    1.8100 C   0  0  0  0  0  0  0  0  0  0  0  0
   -1.7479   -0.5027   -1.0266 C   0  0  0  0  0  0  0  0  0  0  0  0
   -3.2534    0.4079    0.8072 C   0  0  0  0  0  0  0  0  0  0  0  0
   -2.8417    0.4075   -0.5332 C   0  0  0  0  0  0  0  0  0  0  0  0
    0.7652   -1.7886   -1.5459 C   0  0  0  0  0  0  0  0  0  0  0  0
    0.0948   -2.0222   -0.2136 C   0  0  0  0  0  0  0  0  0  0  0  0
    2.6922   -0.6005   -0.7481 C   0  0  0  0  0  0  0  0  0  0  0  0
   -2.9165   -2.7520    0.7460 C   0  0  0  0  0  0  0  0  0  0  0  0
    2.8978    0.4708   -1.8313 C   0  0  0  0  0  0  0  0  0  0  0  0
   -4.2631    1.2875    1.2236 C   0  0  0  0  0  0  0  0  0  0  0  0
   -3.4683    1.2719   -1.4438 C   0  0  0  0  0  0  0  0  0  0  0  0
    0.3271   -2.8475   -2.5367 C   0  0  0  0  0  0  0  0  0  0  0  0
    3.0164    1.9114   -1.3141 C   0  0  0  0  0  0  0  0  0  0  0  0
   -4.8767    2.1434    0.3102 C   0  0  0  0  0  0  0  0  0  0  0  0
   -4.4811    2.1340   -1.0241 C   0  0  0  0  0  0  0  0  0  0  0  0
    4.0180   -0.8985   -0.0675 C   0  0  0  0  0  0  0  0  0  0  0  0
    1.7791    2.4086   -0.6100 C   0  0  0  0  0  0  0  0  0  0  0  0
    0.7749    3.0506   -1.3346 C   0  0  0  0  0  0  0  0  0  0  0  0
    1.6385    2.2261    0.7659 C   0  0  0  0  0  0  0  0  0  0  0  0
    5.3710   -0.2397    1.7610 C   0  0  0  0  0  0  0  0  0  0  0  0
   -0.3699    3.5104   -0.6835 C   0  0  0  0  0  0  0  0  0  0  0  0
    0.4937    2.6858    1.4168 C   0  0  0  0  0  0  0  0  0  0  0  0
   -0.5104    3.3280    0.6921 C   0  0  0  0  0  0  0  0  0  0  0  0
    5.3710    0.7319    2.9218 C   0  0  0  0  0  0  0  0  0  0  0  0
  1 14  2  0
  2 16  1  0
  3 16  2  0
  4 24  1  0
  4 28  1  0
  5 24  2  0
  6  8  1  0
  6 10  1  0
  6 14  1  0
  7 13  1  0
  7 15  1  0
  8  9  1  0
  8 16  1  0
  9 11  1  0
 10 12  1  0
 11 12  2  0
 11 18  1  0
 12 19  1  0
 13 14  1  0
 13 20  1  0
 15 17  1  0
 15 24  1  0
 17 21  1  0
 18 22  2  0
 19 23  2  0
 21 25  1  0
 22 23  1  0
 25 26  2  0
 25 27  1  0
 26 29  1  0
 27 30  2  0
 28 32  1  0
 29 31  2  0
 30 31  1  0
M  END
>  <PUBCHEM_COMPOUND_CID>  (1) 
5005

>  <PUBCHEM_CONFORMER_RMSD>  (1) 
1.2

>  <PUBCHEM_CONFORMER_DIVERSEORDER>  (1) 
2
142
213
165
164
126
154
174
99
205
103
53
236
318
286
139
59
298
57
189
143
265
113
135
80
322
247
292
261
243
307
204
300
278
12
19
28
208
18
11
69
271
56
309
173
34
167
240
124
260
224
149
161
289
123
73
259
268
262
273
115
110
61
266
233
146
24
241
40
321
15
172
302
60
267
221
194
140
234
105
91
319
44
249
109
93
212
90
177
68
158
122
320
4
137
102
46
125
226
47
315
119
188
179
100
288
229
190
294
237
92
13
270
264
255
305
199
17
171
245
131
162
244
133
317
51
180
287
96
97
183
251
160
152
1
120
20
26
121
202
33
175
308
215
230
127
39
239
246
134
43
203
108
166
284
184
274
214
263
38
118
25
76
301
254
253
170
30
269
303
210
153
299
295
285
258
54
74
98
207
132
71
101
159
220
106
156
209
112
52
129
182
310
283
238
280
290
84
32
277
257
218
216
250
148
150
276
85
86
222
6
41
275
223
196
201
83
21
144
78
272
193
227
29
65
282
242
64
232
35
176
10
256
306
316
304
48
191
95
228
128
70
187
81
138
94
312
3
235
197
104
27
157
62
50
155
8
49
198
181
296
147
42
186
45
192
291
114
88
195
136
293
200
87
9
151
107
5
16
211
313
63
111
185
23
145
169
72
117
130
252
314
248
22
231
31
89
178
66
163
281
116
37
79
297
279
141
58
67
225
219
311
36
206
168
7
77
217
14
75
82
55

>  <PUBCHEM_MMFF94_PARTIAL_CHARGES>  (1) 
40
1 -0.57
10 0.44
11 -0.14
12 -0.14
13 0.33
14 0.57
15 0.33
16 0.66
18 -0.15
19 -0.15
2 -0.65
21 0.14
22 -0.15
23 -0.15
24 0.66
25 -0.14
26 -0.15
27 -0.15
28 0.28
29 -0.15
3 -0.57
30 -0.15
31 -0.15
4 -0.43
40 0.36
43 0.15
44 0.15
5 -0.57
50 0.15
51 0.15
52 0.5
53 0.15
54 0.15
57 0.15
58 0.15
59 0.15
6 -0.66
7 -0.9
8 0.36
9 0.14

>  <PUBCHEM_EFFECTIVE_ROTOR_COUNT>  (1) 
11.8

>  <PUBCHEM_PHARMACOPHORE_FEATURES>  (1) 
10
1 1 acceptor
1 2 acceptor
1 3 acceptor
1 5 acceptor
1 7 cation
1 7 donor
3 2 3 16 anion
6 11 12 18 19 22 23 rings
6 25 26 27 29 30 31 rings
6 6 8 9 10 11 12 rings

>  <PUBCHEM_HEAVY_ATOM_COUNT>  (1) 
32

>  <PUBCHEM_ATOM_DEF_STEREO_COUNT>  (1) 
0

>  <PUBCHEM_ATOM_UDEF_STEREO_COUNT>  (1) 
3

>  <PUBCHEM_BOND_DEF_STEREO_COUNT>  (1) 
0

>  <PUBCHEM_BOND_UDEF_STEREO_COUNT>  (1) 
0

>  <PUBCHEM_ISOTOPIC_ATOM_COUNT>  (1) 
0

>  <PUBCHEM_COMPONENT_COUNT>  (1) 
1

>  <PUBCHEM_CACTVS_TAUTO_COUNT>  (1) 
1

>  <PUBCHEM_CONFORMER_ID>  (1) 
0000138D00000002

>  <PUBCHEM_MMFF94_ENERGY>  (1) 
70.6931

>  <PUBCHEM_FEATURE_SELFOVERLAP>  (1) 
50.824

>  <PUBCHEM_SHAPE_FINGERPRINT>  (1) 
10675989 125 16675538847159489812
11112241 14 17488437785261699584
12035758 1 18335990783515309329
12422481 6 18266741273075663672
12553582 1 18270136624958952980
12633257 1 18114185228437301831
12788726 201 18199203797194151100
13122387 1 18340782536155218957
13140716 1 18410863178221549964
13402501 40 18340202968994564620
13726171 33 18192459526018718372
14725015 67 17905049144921873341
15324884 4 18058468572006851302
17093844 170 18337955558827567860
17809404 112 18201722846930776614
20764821 26 18336560403347154237
23559900 14 18267037059020788454
238 59 18126557045422320005
24893992 56 18187367572586786505
3027735 51 17979643333797424857
350125 39 18266193901242391847
35225 105 15361023480116528223
392239 28 17773012199894807832
508706 21 18334575750557101015
6004065 56 18129922568937573485
70251023 43 17263849079878339767

>  <PUBCHEM_SHAPE_MULTIPOLES>  (1) 
619.24
9.61
4.61
2.21
4.46
0.08
0.39
0.69
4.41
-2.18
-0.51
1.56
-0.34
1.4

>  <PUBCHEM_SHAPE_SELFOVERLAP>  (1) 
1304.027

>  <PUBCHEM_SHAPE_VOLUME>  (1) 
345.2

>  <PUBCHEM_COORDINATE_TYPE>  (1) 
2
5
10

$$$$
