5008
     RDKit          3D

 24 27  0  0  1  0  0  0  0  0999 V2000
   -0.6659    1.3921   -2.5223 O   0  0  0  0  0  0  0  0  0  0  0  0
    2.7469   -3.0316   -0.2371 O   0  0  0  0  0  0  0  0  0  0  0  0
    2.9987    2.4091    0.5300 N   0  0  0  0  0  0  0  0  0  0  0  0
   -1.6961    0.6687    1.0661 C   0  0  0  0  0  0  0  0  0  0  0  0
   -3.9432   -0.0289   -0.0456 C   0  0  0  0  0  0  0  0  0  0  0  0
   -1.7590    1.2112   -0.3827 C   0  0  0  0  0  0  0  0  0  0  0  0
   -3.0585    0.7271   -1.0596 C   0  0  0  0  0  0  0  0  0  0  0  0
   -3.2066   -1.2815    0.4945 C   0  0  0  0  0  0  0  0  0  0  0  0
   -1.8366   -0.8671    1.0717 C   0  0  0  0  0  0  0  0  0  0  0  0
   -2.8858    1.2625    1.8469 C   0  0  0  0  0  0  0  0  0  0  0  0
   -4.2071    0.9129    1.1467 C   0  0  0  0  0  0  0  0  0  0  0  0
   -0.5273    0.8502   -1.2118 C   0  0  0  0  0  0  0  0  0  0  0  0
   -3.0670   -2.3570   -0.5417 C   0  0  0  0  0  0  0  0  0  0  0  0
    0.7447    1.3685   -0.5872 C   0  0  0  0  0  0  0  0  0  0  0  0
   -3.5988   -3.5789   -0.4286 C   0  0  0  0  0  0  0  0  0  0  0  0
    1.7865    0.5116   -0.2328 C   0  0  0  0  0  0  0  0  0  0  0  0
    0.8403    2.7342   -0.3800 C   0  0  0  0  0  0  0  0  0  0  0  0
    2.9450    1.0764    0.3451 C   0  0  0  0  0  0  0  0  0  0  0  0
    1.9993    3.2339    0.1903 C   0  0  0  0  0  0  0  0  0  0  0  0
    1.7336   -0.8780   -0.4241 C   0  0  0  0  0  0  0  0  0  0  0  0
    4.0188    0.2625    0.7190 C   0  0  0  0  0  0  0  0  0  0  0  0
    2.8099   -1.6846   -0.0483 C   0  0  0  0  0  0  0  0  0  0  0  0
    3.9486   -1.1159    0.5214 C   0  0  0  0  0  0  0  0  0  0  0  0
    3.8795   -3.7975    0.1701 C   0  0  0  0  0  0  0  0  0  0  0  0
  1 12  1  0
  2 22  1  0
  2 24  1  0
  3 18  2  0
  3 19  1  0
  4  6  1  0
  4  9  1  0
  4 10  1  0
  5  7  1  0
  5  8  1  0
  5 11  1  0
  6  7  1  0
  6 12  1  0
  8  9  1  0
  8 13  1  0
 10 11  1  0
 12 14  1  0
 13 15  2  0
 14 16  2  0
 14 17  1  0
 16 18  1  0
 16 20  1  0
 17 19  2  0
 18 21  1  0
 20 22  2  0
 21 23  2  0
 22 23  1  0
M  CHG  1   3   1
M  END
>  <PUBCHEM_COMPOUND_CID>  (1) 
5008

>  <PUBCHEM_CONFORMER_RMSD>  (1) 
0.8

>  <PUBCHEM_CONFORMER_DIVERSEORDER>  (1) 
4
11
27
26
23
17
21
6
9
25
10
12
14
16
18
22
24
8
5
13
15
2
3
20
19
7
1

>  <PUBCHEM_MMFF94_PARTIAL_CHARGES>  (1) 
26
1 -0.68
12 0.42
13 -0.29
14 -0.14
15 -0.3
17 -0.15
18 0.36
19 0.21
2 -0.36
20 -0.15
21 -0.15
22 0.08
23 -0.15
24 0.28
3 -0.18
38 0.15
39 0.4
40 0.15
41 0.15
42 0.15
43 0.15
44 0.15
45 0.46
46 0.15
47 0.15
8 0.14

>  <PUBCHEM_EFFECTIVE_ROTOR_COUNT>  (1) 
5.2

>  <PUBCHEM_PHARMACOPHORE_FEATURES>  (1) 
9
1 1 acceptor
1 1 donor
1 15 hydrophobe
1 2 acceptor
1 3 acceptor
1 3 donor
6 16 18 20 21 22 23 rings
6 3 14 16 17 18 19 rings
8 4 5 6 7 8 9 10 11 rings

>  <PUBCHEM_HEAVY_ATOM_COUNT>  (1) 
24

>  <PUBCHEM_ATOM_DEF_STEREO_COUNT>  (1) 
0

>  <PUBCHEM_ATOM_UDEF_STEREO_COUNT>  (1) 
5

>  <PUBCHEM_BOND_DEF_STEREO_COUNT>  (1) 
0

>  <PUBCHEM_BOND_UDEF_STEREO_COUNT>  (1) 
0

>  <PUBCHEM_ISOTOPIC_ATOM_COUNT>  (1) 
0

>  <PUBCHEM_COMPONENT_COUNT>  (1) 
1

>  <PUBCHEM_CACTVS_TAUTO_COUNT>  (1) 
1

>  <PUBCHEM_CONFORMER_ID>  (1) 
0000139000000004

>  <PUBCHEM_MMFF94_ENERGY>  (1) 
88.1544

>  <PUBCHEM_FEATURE_SELFOVERLAP>  (1) 
45.701

>  <PUBCHEM_SHAPE_FINGERPRINT>  (1) 
10369192 42 14784097818993785917
10616163 171 18271249442490084455
11370993 70 18122901198908056088
11552529 35 18202278143205309135
11582403 64 15807125146042079308
12107183 9 18054237522756561193
12506688 2 18336267847328354876
12553582 1 18196097629616276758
12596599 1 18343028761185840882
12633257 1 18410012109119202288
12714826 92 17532661126488474796
12839892 36 18051112981192803000
13533116 47 18342176674587583481
13544653 18 18189341173644563788
13583140 156 17702936067143191561
14178342 30 18342452677317075376
14223421 5 18338796826713429599
14251757 17 17753575140686968503
14289901 80 18198910390765942369
14787075 74 17122828415116960417
14790565 3 18193000542101484900
14844126 61 17541930997728093282
14863182 85 17757562119476507927
14866123 147 17258496639323998672
15099037 8 18340769359717677211
15422964 175 18337946780299159844
16752209 62 15357961361961624549
17492 89 18340208595571079643
1813 80 17458640972798431620
19141452 34 18409167693185218907
19591789 44 18265898141542227444
20028762 73 17912642707642973646
20681651 13 17987529259088527419
20775530 9 18410292510186232042
21421861 104 18053405441747086259
23559900 14 18340197587400503969
3797600 57 17343797159328715232
392239 28 17339557511200919336
463206 1 17548977114815688543
7097593 13 18342184353435454625
9709674 26 18261676003294665291

>  <PUBCHEM_SHAPE_MULTIPOLES>  (1) 
477.19
8.39
4.02
1.34
0.01
2.9
0.23
4.42
-1.94
2.38
0.3
-0.98
-0.58
-0.54

>  <PUBCHEM_SHAPE_SELFOVERLAP>  (1) 
1041.205

>  <PUBCHEM_SHAPE_VOLUME>  (1) 
256.5

>  <PUBCHEM_COORDINATE_TYPE>  (1) 
2
5
10

$$$$
