5009
     RDKit          3D

 24 27  0  0  1  0  0  0  0  0999 V2000
   -0.6509   -1.3868    2.5251 O   0  0  0  0  0  0  0  0  0  0  0  0
    2.7061    3.0443    0.2392 O   0  0  0  0  0  0  0  0  0  0  0  0
    3.0531   -2.4165   -0.5504 N   0  0  0  0  0  0  0  0  0  0  0  0
   -1.6895   -0.6798   -1.0642 C   0  0  0  0  0  0  0  0  0  0  0  0
   -3.9368    0.0154    0.0490 C   0  0  0  0  0  0  0  0  0  0  0  0
   -1.7483   -1.2170    0.3868 C   0  0  0  0  0  0  0  0  0  0  0  0
   -3.0480   -0.7342    1.0642 C   0  0  0  0  0  0  0  0  0  0  0  0
   -3.2047    1.2681   -0.4971 C   0  0  0  0  0  0  0  0  0  0  0  0
   -1.8345    0.8556   -1.0752 C   0  0  0  0  0  0  0  0  0  0  0  0
   -2.8789   -1.2799   -1.8406 C   0  0  0  0  0  0  0  0  0  0  0  0
   -4.2000   -0.9315   -1.1393 C   0  0  0  0  0  0  0  0  0  0  0  0
   -0.5162   -0.8493    1.2124 C   0  0  0  0  0  0  0  0  0  0  0  0
   -3.0665    2.3480    0.5348 C   0  0  0  0  0  0  0  0  0  0  0  0
    0.7562   -1.3662    0.5874 C   0  0  0  0  0  0  0  0  0  0  0  0
   -3.6020    3.5678    0.4181 C   0  0  0  0  0  0  0  0  0  0  0  0
    1.7976   -0.5116    0.2260 C   0  0  0  0  0  0  0  0  0  0  0  0
    0.8507   -2.7302    0.3875 C   0  0  0  0  0  0  0  0  0  0  0  0
    2.9487   -1.0891   -0.3500 C   0  0  0  0  0  0  0  0  0  0  0  0
    1.7227    0.8780    0.4210 C   0  0  0  0  0  0  0  0  0  0  0  0
    2.0153   -3.2024   -0.1828 C   0  0  0  0  0  0  0  0  0  0  0  0
    3.9935   -0.2438   -0.7135 C   0  0  0  0  0  0  0  0  0  0  0  0
    2.7825    1.6997    0.0484 C   0  0  0  0  0  0  0  0  0  0  0  0
    3.9191    1.1378   -0.5197 C   0  0  0  0  0  0  0  0  0  0  0  0
    3.8307    3.8235   -0.1670 C   0  0  0  0  0  0  0  0  0  0  0  0
  1 12  1  0
  2 22  1  0
  2 24  1  0
  3 18  2  0
  3 20  1  0
  4  6  1  0
  4  9  1  0
  4 10  1  0
  5  7  1  0
  5  8  1  0
  5 11  1  0
  6  7  1  0
  6 12  1  0
  8  9  1  0
  8 13  1  0
 10 11  1  0
 12 14  1  0
 13 15  2  0
 14 16  2  0
 14 17  1  0
 16 18  1  0
 16 19  1  0
 17 20  2  0
 18 21  1  0
 19 22  2  0
 21 23  2  0
 22 23  1  0
M  END
>  <PUBCHEM_COMPOUND_CID>  (1) 
5009

>  <PUBCHEM_CONFORMER_RMSD>  (1) 
0.8

>  <PUBCHEM_CONFORMER_DIVERSEORDER>  (1) 
2
19
25
23
10
5
27
28
15
16
22
18
24
29
1
20
14
8
11
17
7
21
6
12
13
26
4
9
3

>  <PUBCHEM_MMFF94_PARTIAL_CHARGES>  (1) 
25
1 -0.68
12 0.42
13 -0.29
14 -0.14
15 -0.3
17 -0.15
18 0.31
19 -0.15
2 -0.36
20 0.16
21 -0.15
22 0.08
23 -0.15
24 0.28
3 -0.62
38 0.15
39 0.4
40 0.15
41 0.15
42 0.15
43 0.15
44 0.15
45 0.15
46 0.15
8 0.14

>  <PUBCHEM_EFFECTIVE_ROTOR_COUNT>  (1) 
5.2

>  <PUBCHEM_PHARMACOPHORE_FEATURES>  (1) 
8
1 1 acceptor
1 1 donor
1 15 hydrophobe
1 2 acceptor
1 3 acceptor
6 16 18 19 21 22 23 rings
6 3 14 16 17 18 20 rings
8 4 5 6 7 8 9 10 11 rings

>  <PUBCHEM_HEAVY_ATOM_COUNT>  (1) 
24

>  <PUBCHEM_ATOM_DEF_STEREO_COUNT>  (1) 
0

>  <PUBCHEM_ATOM_UDEF_STEREO_COUNT>  (1) 
5

>  <PUBCHEM_BOND_DEF_STEREO_COUNT>  (1) 
0

>  <PUBCHEM_BOND_UDEF_STEREO_COUNT>  (1) 
0

>  <PUBCHEM_ISOTOPIC_ATOM_COUNT>  (1) 
0

>  <PUBCHEM_COMPONENT_COUNT>  (1) 
1

>  <PUBCHEM_CACTVS_TAUTO_COUNT>  (1) 
1

>  <PUBCHEM_CONFORMER_ID>  (1) 
0000139100000002

>  <PUBCHEM_MMFF94_ENERGY>  (1) 
90.0867

>  <PUBCHEM_FEATURE_SELFOVERLAP>  (1) 
40.628

>  <PUBCHEM_SHAPE_FINGERPRINT>  (1) 
10498660 4 18190733322647506919
116883 192 17405995055086612358
12156800 1 16110671306850954060
12173636 292 18265339580180082933
12403260 363 18337940294798101810
12633257 1 18044368318864012273
12714826 92 12606588587240414122
12730499 353 18335426810879837579
12788726 201 17108452309548374730
13134695 92 18263072220323051942
13224815 77 17603302644128862935
13464514 151 18335427807591480722
13583140 156 18046647611486020329
14250199 8 18410005525003065031
14251764 38 18337949090870642376
14466204 15 18337382761104604056
14787075 74 18043247058297497835
15295992 7 18041856003498229650
15664445 248 16979789563468034781
15840311 113 18335985273731989253
16087824 20 17258221770145113408
16752209 62 15912769371644444883
17921350 177 18056478344375394684
17980427 23 18121185763543024218
19930381 70 18051691337267930113
20567600 299 18342173315723113600
20600515 1 16375252807261004531
20691752 17 17386572340620524255
21033648 29 16443885250499701324
21864079 5 18409445899180497865
221357 26 18413110537244682077
22393880 68 18130790036345415710
23557571 272 17605289556145723107
23558518 356 18259992590963211785
238 59 18411415150507763454
25 1 18261397689572107250
25265897 201 17843711913877717101
3380486 145 17757290536384889595
340366 18 17913489030589493007
4280585 95 17555749707300890542
46194498 28 18131364015495200806
474 4 18335977661815011692
5895379 119 18127118672235735096
6287921 2 18261968443148679580
7399639 24 18119541065604015874
7832392 63 18124308316161915655
81228 2 16734699530691017355
84936 182 18342735247737481608
9981440 41 18193548094095399584

>  <PUBCHEM_SHAPE_MULTIPOLES>  (1) 
477.19
8.34
4.03
1.34
0.12
2.97
-0.24
4.29
1.93
-2.4
-0.29
0.97
-0.59
-0.53

>  <PUBCHEM_SHAPE_SELFOVERLAP>  (1) 
1042.095

>  <PUBCHEM_SHAPE_VOLUME>  (1) 
255.7

>  <PUBCHEM_COORDINATE_TYPE>  (1) 
2
5
10

$$$$
