5012
     RDKit          3D

 19 21  0  0  0  0  0  0  0  0999 V2000
    5.6270   -0.9764    0.1837 O   0  0  0  0  0  0  0  0  0  0  0  0
    5.3371    1.1680   -0.1855 O   0  0  0  0  0  0  0  0  0  0  0  0
   -2.8550    0.1009   -0.0463 N   0  0  0  0  0  0  0  0  0  0  0  0
   -5.6367   -0.4952    0.1893 N   0  0  0  0  0  0  0  0  0  0  0  0
   -0.6543   -0.7551    0.1128 N   0  0  0  0  0  0  0  0  0  0  0  0
    4.8788    0.0160    0.0095 N   0  0  0  0  0  0  0  0  0  0  0  0
   -3.3679   -1.2045   -0.4836 C   0  0  0  0  0  0  0  0  0  0  0  0
   -3.6767    0.8087    0.9415 C   0  0  0  0  0  0  0  0  0  0  0  0
   -4.8400   -1.0959   -0.8794 C   0  0  0  0  0  0  0  0  0  0  0  0
   -5.1385    0.8445    0.4958 C   0  0  0  0  0  0  0  0  0  0  0  0
   -1.4711    0.3070   -0.0730 C   0  0  0  0  0  0  0  0  0  0  0  0
   -1.0277    1.5958   -0.2910 C   0  0  0  0  0  0  0  0  0  0  0  0
    0.6759   -0.5479    0.0840 C   0  0  0  0  0  0  0  0  0  0  0  0
    1.2252    0.7332   -0.1324 C   0  0  0  0  0  0  0  0  0  0  0  0
    0.3433    1.8061   -0.3200 C   0  0  0  0  0  0  0  0  0  0  0  0
    2.6187    0.9131   -0.1561 C   0  0  0  0  0  0  0  0  0  0  0  0
    1.5523   -1.6134    0.2707 C   0  0  0  0  0  0  0  0  0  0  0  0
    3.4719   -0.1702    0.0333 C   0  0  0  0  0  0  0  0  0  0  0  0
    2.9377   -1.4349    0.2467 C   0  0  0  0  0  0  0  0  0  0  0  0
  1  6  1  0
  2  6  2  0
  3  7  1  0
  3  8  1  0
  3 11  1  0
  4  9  1  0
  4 10  1  0
  5 11  2  0
  5 13  1  0
  6 18  1  0
  7  9  1  0
  8 10  1  0
 11 12  1  0
 12 15  2  0
 13 14  2  0
 13 17  1  0
 14 15  1  0
 14 16  1  0
 16 18  2  0
 17 19  2  0
 18 19  1  0
M  CHG  2   1  -1   6   1
M  END
>  <PUBCHEM_COMPOUND_CID>  (1) 
5012

>  <PUBCHEM_CONFORMER_RMSD>  (1) 
0.6

>  <PUBCHEM_CONFORMER_DIVERSEORDER>  (1) 
1
4
3
2

>  <PUBCHEM_MMFF94_PARTIAL_CHARGES>  (1) 
24
1 -0.52
10 0.27
11 0.41
12 -0.15
13 0.31
15 -0.15
16 -0.15
17 -0.15
18 0.13
19 -0.15
2 -0.52
28 0.36
29 0.15
3 -0.84
30 0.15
31 0.15
32 0.15
33 0.15
4 -0.9
5 -0.62
6 0.91
7 0.37
8 0.37
9 0.27

>  <PUBCHEM_EFFECTIVE_ROTOR_COUNT>  (1) 
3.2

>  <PUBCHEM_PHARMACOPHORE_FEATURES>  (1) 
9
1 1 acceptor
1 1 anion
1 2 acceptor
1 4 cation
1 4 donor
3 3 5 11 cation
6 13 14 16 17 18 19 rings
6 3 4 7 8 9 10 rings
6 5 11 12 13 14 15 rings

>  <PUBCHEM_HEAVY_ATOM_COUNT>  (1) 
19

>  <PUBCHEM_ATOM_DEF_STEREO_COUNT>  (1) 
0

>  <PUBCHEM_ATOM_UDEF_STEREO_COUNT>  (1) 
0

>  <PUBCHEM_BOND_DEF_STEREO_COUNT>  (1) 
0

>  <PUBCHEM_BOND_UDEF_STEREO_COUNT>  (1) 
0

>  <PUBCHEM_ISOTOPIC_ATOM_COUNT>  (1) 
0

>  <PUBCHEM_COMPONENT_COUNT>  (1) 
1

>  <PUBCHEM_CACTVS_TAUTO_COUNT>  (1) 
1

>  <PUBCHEM_CONFORMER_ID>  (1) 
0000139400000001

>  <PUBCHEM_MMFF94_ENERGY>  (1) 
63.1659

>  <PUBCHEM_FEATURE_SELFOVERLAP>  (1) 
45.782

>  <PUBCHEM_SHAPE_FINGERPRINT>  (1) 
10090160 65 17967250897133160162
10906281 52 18263382372310412694
11287383 113 15575002796446201244
11401426 45 18409166619111130997
11471102 20 18333731333763268284
11806522 49 18409165519372636988
12107183 9 17623016685761804955
12236239 1 18272653450187401187
13167823 11 18343863333845877247
13288520 33 18342738516207288349
13583140 156 14979949264321368023
13760787 5 18041002859779387101
13862211 1 18334852810239067338
14251764 18 18343024394079443321
14573314 32 16558761078539752669
14576447 43 18340196492421291783
14787075 74 18408323302356479568
15048467 5 17989489601988852769
15196674 1 18337390448278106652
15788980 27 15357697500371176227
17834072 33 18273495692989446577
1813 80 17968388861423549565
19489759 90 16630808790474948601
200 152 18413669119374482377
20612939 158 18114464564858227853
20645477 70 18262515896876303907
21267235 1 18410581690618465119
21641784 216 17604726477443471500
221490 88 18045505463433423619
23402539 116 18413666907286996509
23402655 69 18410007702751898637
23559900 14 18200302347022942521
26918003 58 17676212368294411481
2871803 45 18187079534008146770
300161 21 18341325626585720377
34797466 226 16702029733141695432
34934 24 18336542712471547409
3545911 37 18342459240485967739
4214541 1 18342175553585470249
4340502 62 16153423956997587394
4463277 17 18409730659759626093
5104073 3 18411698807032130866
542803 24 17418376887185738673
602551 16 16128081364743931351
7495541 125 16056592222438703315

>  <PUBCHEM_SHAPE_MULTIPOLES>  (1) 
359.35
12.12
1.65
0.74
0.51
0.09
-0.01
-1.55
-0.41
-0.2
0.09
0.5
0
-0.84

>  <PUBCHEM_SHAPE_SELFOVERLAP>  (1) 
781.288

>  <PUBCHEM_SHAPE_VOLUME>  (1) 
195.1

>  <PUBCHEM_COORDINATE_TYPE>  (1) 
2
5
10

$$$$
