5018
     RDKit          3D

 20 22  0  0  1  0  0  0  0  0999 V2000
    4.9848   -0.4141    1.0999 Cl  0  0  0  0  0  0  0  0  0  0  0  0
    3.9571   -1.4825   -1.5120 O   0  0  0  0  0  0  0  0  0  0  0  0
   -1.4818    2.3520   -0.0831 N   0  0  0  0  0  0  0  0  0  0  0  0
   -0.6388    0.1530   -1.0956 C   0  0  0  0  0  0  0  0  0  0  0  0
   -1.0106    1.6503   -1.2894 C   0  0  0  0  0  0  0  0  0  0  0  0
    0.7690    0.0415   -0.5161 C   0  0  0  0  0  0  0  0  0  0  0  0
   -0.4092    2.6193    0.8854 C   0  0  0  0  0  0  0  0  0  0  0  0
    0.1258    1.3591    1.5682 C   0  0  0  0  0  0  0  0  0  0  0  0
    1.1205    0.6021    0.7268 C   0  0  0  0  0  0  0  0  0  0  0  0
   -1.6965   -0.7359   -0.4299 C   0  0  0  0  0  0  0  0  0  0  0  0
    1.7479   -0.6560   -1.2507 C   0  0  0  0  0  0  0  0  0  0  0  0
   -2.1203    3.6165   -0.4666 C   0  0  0  0  0  0  0  0  0  0  0  0
    2.4335    0.4445    1.2046 C   0  0  0  0  0  0  0  0  0  0  0  0
   -1.2960   -1.8291    0.3286 C   0  0  0  0  0  0  0  0  0  0  0  0
   -3.0441   -0.4390   -0.5925 C   0  0  0  0  0  0  0  0  0  0  0  0
    3.0466   -0.7994   -0.7645 C   0  0  0  0  0  0  0  0  0  0  0  0
    3.3890   -0.2496    0.4642 C   0  0  0  0  0  0  0  0  0  0  0  0
   -2.2579   -2.6379    0.9339 C   0  0  0  0  0  0  0  0  0  0  0  0
   -4.0060   -1.2476    0.0128 C   0  0  0  0  0  0  0  0  0  0  0  0
   -3.6130   -2.3472    0.7759 C   0  0  0  0  0  0  0  0  0  0  0  0
  1 17  1  0
  2 16  1  0
  3  5  1  0
  3  7  1  0
  3 12  1  0
  4  5  1  0
  4  6  1  0
  4 10  1  0
  6  9  2  0
  6 11  1  0
  7  8  1  0
  8  9  1  0
  9 13  1  0
 10 14  2  0
 10 15  1  0
 11 16  2  0
 13 17  2  0
 14 18  1  0
 15 19  2  0
 16 17  1  0
 18 20  2  0
 19 20  1  0
M  END
>  <PUBCHEM_COMPOUND_CID>  (1) 
5018

>  <PUBCHEM_CONFORMER_RMSD>  (1) 
0.6

>  <PUBCHEM_CONFORMER_DIVERSEORDER>  (1) 
1
4
7
5
11
10
6
2
3
9
8

>  <PUBCHEM_MMFF94_PARTIAL_CHARGES>  (1) 
28
1 -0.18
10 -0.14
11 -0.15
12 0.27
13 -0.15
14 -0.15
15 -0.15
16 0.08
17 0.18
18 -0.15
19 -0.15
2 -0.53
20 -0.15
28 0.15
3 -0.81
32 0.15
33 0.15
34 0.15
35 0.15
36 0.15
37 0.15
38 0.45
4 0.29
5 0.27
6 -0.14
7 0.27
8 0.14
9 -0.14

>  <PUBCHEM_EFFECTIVE_ROTOR_COUNT>  (1) 
2

>  <PUBCHEM_PHARMACOPHORE_FEATURES>  (1) 
5
1 2 donor
1 3 cation
6 10 14 15 18 19 20 rings
6 6 9 11 13 16 17 rings
7 3 4 5 6 7 8 9 rings

>  <PUBCHEM_HEAVY_ATOM_COUNT>  (1) 
20

>  <PUBCHEM_ATOM_DEF_STEREO_COUNT>  (1) 
0

>  <PUBCHEM_ATOM_UDEF_STEREO_COUNT>  (1) 
1

>  <PUBCHEM_BOND_DEF_STEREO_COUNT>  (1) 
0

>  <PUBCHEM_BOND_UDEF_STEREO_COUNT>  (1) 
0

>  <PUBCHEM_ISOTOPIC_ATOM_COUNT>  (1) 
0

>  <PUBCHEM_COMPONENT_COUNT>  (1) 
1

>  <PUBCHEM_CACTVS_TAUTO_COUNT>  (1) 
9

>  <PUBCHEM_CONFORMER_ID>  (1) 
0000139A00000001

>  <PUBCHEM_MMFF94_ENERGY>  (1) 
63.2522

>  <PUBCHEM_FEATURE_SELFOVERLAP>  (1) 
25.379

>  <PUBCHEM_SHAPE_FINGERPRINT>  (1) 
104564 63 18336831892451009515
11646440 116 18341339929592032281
11833330 49 18260266347725669805
12236239 1 16443055101888224214
12363563 72 18337111292837450119
12532896 13 18051124796474130941
12714826 92 18411983550637234606
12716301 132 18194660623658331697
12730499 353 17329434939638239017
12788726 201 18261404355202893720
13140716 1 18262519328776401355
13681431 1 18048329030536143853
14178342 30 18189609454682376562
14790565 3 17402330867915321105
14817 1 14030193018444837601
14863182 85 15590775621844979155
15885798 251 18337960085886212523
16752209 62 17895175689687416287
16945 1 18334014969166499231
17357779 13 18272075115793215629
17804303 29 18189053260712797787
17844478 74 18201716262745769068
17980427 23 14045468886067251643
1813 80 18337401550937384871
18186145 218 12035718829968264238
19049666 15 18199746942947199942
19784866 135 18333723615759902331
200 152 15936404533624023602
20510252 161 18411416180993556489
20600515 1 18187922936546009271
21285901 2 18272376356230482847
21452121 199 18118122708504468949
22182313 1 17703790272267373900
229495 10 14476130955657035315
23175994 123 18341334478418599255
23184049 59 17346324833518816975
23419403 2 18120909931900600333
23493267 7 18268412556788289992
23557571 272 18412823560879270596
23559900 14 18340486647985661718
2748010 2 17774717559466724820
3759504 43 18120648037658764213
4340502 62 17907296555554029189
576247 118 18340491178511267109
5845 1 14300496819699512549
6049 1 18059861623701148172
7364860 26 17615979137234528557
81228 2 18339657645776570345
8809292 202 18200035014935382020
9981440 41 17414124968721700874

>  <PUBCHEM_SHAPE_MULTIPOLES>  (1) 
402.61
7.04
3.18
1.42
4.88
2.39
-0.05
-4.76
0.78
-3.54
0.38
0.74
0.02
1.29

>  <PUBCHEM_SHAPE_SELFOVERLAP>  (1) 
859.071

>  <PUBCHEM_SHAPE_VOLUME>  (1) 
223.6

>  <PUBCHEM_COORDINATE_TYPE>  (1) 
2
5
10

$$$$
