504
     RDKit          3D

  6  6  0  0  0  0  0  0  0  0999 V2000
   -2.0319    0.0617   -0.0005 O   0  0  0  0  0  0  0  0  0  0  0  0
   -0.0204   -1.1058    0.0003 N   0  0  0  0  0  0  0  0  0  0  0  0
    1.4781    0.5684   -0.0005 N   0  0  0  0  0  0  0  0  0  0  0  0
    0.1270    1.1774    0.0005 C   0  0  0  0  0  0  0  0  0  0  0  0
   -0.8136    0.0010    0.0003 C   0  0  0  0  0  0  0  0  0  0  0  0
    1.2609   -0.7028   -0.0001 C   0  0  0  0  0  0  0  0  0  0  0  0
  1  5  2  0
  2  5  1  0
  2  6  1  0
  3  4  1  0
  3  6  2  0
  4  5  1  0
M  END
>  <PUBCHEM_COMPOUND_CID>  (1) 
504

>  <PUBCHEM_CONFORMER_RMSD>  (1) 
0.4

>  <PUBCHEM_CONFORMER_DIVERSEORDER>  (1) 
1

>  <PUBCHEM_MMFF94_PARTIAL_CHARGES>  (1) 
8
1 -0.57
10 0.06
2 -0.49
3 -0.7
4 0.31
5 0.57
6 0.45
9 0.37

>  <PUBCHEM_EFFECTIVE_ROTOR_COUNT>  (1) 
0.4

>  <PUBCHEM_PHARMACOPHORE_FEATURES>  (1) 
3
1 1 acceptor
1 2 donor
5 2 3 4 5 6 rings

>  <PUBCHEM_HEAVY_ATOM_COUNT>  (1) 
6

>  <PUBCHEM_ATOM_DEF_STEREO_COUNT>  (1) 
0

>  <PUBCHEM_ATOM_UDEF_STEREO_COUNT>  (1) 
0

>  <PUBCHEM_BOND_DEF_STEREO_COUNT>  (1) 
0

>  <PUBCHEM_BOND_UDEF_STEREO_COUNT>  (1) 
0

>  <PUBCHEM_ISOTOPIC_ATOM_COUNT>  (1) 
0

>  <PUBCHEM_COMPONENT_COUNT>  (1) 
1

>  <PUBCHEM_CACTVS_TAUTO_COUNT>  (1) 
3

>  <PUBCHEM_CONFORMER_ID>  (1) 
000001F800000001

>  <PUBCHEM_MMFF94_ENERGY>  (1) 
6.9216

>  <PUBCHEM_FEATURE_SELFOVERLAP>  (1) 
15.223

>  <PUBCHEM_SHAPE_FINGERPRINT>  (1) 
139733 1 9222931678158165475
20096714 4 18339363083797047400
21015797 1 9221787082379996168
21040471 1 18338516459870014144
29004967 10 18261118456335943889
5943 1 12759686948460523834

>  <PUBCHEM_SHAPE_MULTIPOLES>  (1) 
107.65
1.88
1.15
0.57
0.52
0.09
0
-0.06
0
-0.2
0
-0.01
0.01
0

>  <PUBCHEM_SHAPE_SELFOVERLAP>  (1) 
219.044

>  <PUBCHEM_SHAPE_VOLUME>  (1) 
64.8

>  <PUBCHEM_COORDINATE_TYPE>  (1) 
2
5
10

$$$$
