5044
     RDKit          3D

 28 30  0  0  0  0  0  0  0  0999 V2000
    4.1698   -0.5752    0.2855 O   0  0  0  0  0  0  0  0  0  0  0  0
   -4.3192   -1.5498   -1.5094 O   0  0  0  0  0  0  0  0  0  0  0  0
    2.8434   -1.1298    2.0765 O   0  0  0  0  0  0  0  0  0  0  0  0
    2.6683   -2.2254    0.0391 N   0  0  0  0  0  0  0  0  0  0  0  0
   -3.9327    0.1658    0.0439 N   0  0  0  0  0  0  0  0  0  0  0  0
   -4.2870    2.4634    1.6792 N   0  0  0  0  0  0  0  0  0  0  0  0
    0.2529   -2.5809    0.1077 C   0  0  0  0  0  0  0  0  0  0  0  0
    1.6139   -3.1492    0.3888 C   0  0  0  0  0  0  0  0  0  0  0  0
   -2.2677   -1.5310   -0.4131 C   0  0  0  0  0  0  0  0  0  0  0  0
   -0.4076   -1.8576    1.0938 C   0  0  0  0  0  0  0  0  0  0  0  0
   -0.3332   -2.7848   -1.1359 C   0  0  0  0  0  0  0  0  0  0  0  0
   -1.6726   -1.3308    0.8325 C   0  0  0  0  0  0  0  0  0  0  0  0
   -1.5981   -2.2579   -1.3973 C   0  0  0  0  0  0  0  0  0  0  0  0
   -3.5858   -0.9799   -0.6857 C   0  0  0  0  0  0  0  0  0  0  0  0
   -5.1435    0.9002    0.0089 C   0  0  0  0  0  0  0  0  0  0  0  0
   -5.3080    2.0183    0.8101 C   0  0  0  0  0  0  0  0  0  0  0  0
    5.8463    1.1255    0.2453 C   0  0  0  0  0  0  0  0  0  0  0  0
    4.8068    0.4338    1.0773 C   0  0  0  0  0  0  0  0  0  0  0  0
   -6.1483    0.4695   -0.8427 C   0  0  0  0  0  0  0  0  0  0  0  0
    3.1922   -1.2955    0.9123 C   0  0  0  0  0  0  0  0  0  0  0  0
   -6.5095    2.7248    0.7588 C   0  0  0  0  0  0  0  0  0  0  0  0
   -7.3499    1.1762   -0.8942 C   0  0  0  0  0  0  0  0  0  0  0  0
    7.1485    0.6384    0.2255 C   0  0  0  0  0  0  0  0  0  0  0  0
    5.4984    2.2476   -0.4983 C   0  0  0  0  0  0  0  0  0  0  0  0
   -7.5304    2.3039   -0.0935 C   0  0  0  0  0  0  0  0  0  0  0  0
    8.1151    1.2817   -0.5476 C   0  0  0  0  0  0  0  0  0  0  0  0
    6.4648    2.8909   -1.2716 C   0  0  0  0  0  0  0  0  0  0  0  0
    7.7732    2.4079   -1.2961 C   0  0  0  0  0  0  0  0  0  0  0  0
  1 18  1  0
  1 20  1  0
  2 14  2  0
  3 20  2  0
  4  8  1  0
  4 20  1  0
  5 14  1  0
  5 15  1  0
  6 16  1  0
  7  8  1  0
  7 10  2  0
  7 11  1  0
  9 12  2  0
  9 13  1  0
  9 14  1  0
 10 12  1  0
 11 13  2  0
 15 16  2  0
 15 19  1  0
 16 21  1  0
 17 18  1  0
 17 23  2  0
 17 24  1  0
 19 22  2  0
 21 25  2  0
 22 25  1  0
 23 26  1  0
 24 27  2  0
 26 28  2  0
 27 28  1  0
M  END
>  <PUBCHEM_COMPOUND_CID>  (1) 
5044

>  <PUBCHEM_CONFORMER_RMSD>  (1) 
1

>  <PUBCHEM_CONFORMER_DIVERSEORDER>  (1) 
1
204
42
88
122
97
153
134
49
9
62
57
31
109
51
38
50
143
191
94
89
123
133
145
183
92
141
185
196
198
151
208
102
129
167
197
132
146
81
100
193
119
32
17
174
18
176
157
96
20
77
80
87
201
202
14
90
48
75
207
103
195
158
155
115
59
53
41
84
149
65
165
138
114
10
211
86
181
55
173
93
161
15
4
140
136
164
5
43
205
76
60
67
74
98
194
11
125
203
150
210
166
78
37
160
124
13
192
148
159
212
142
200
45
110
126
46
187
91
70
83
209
130
180
22
116
175
28
12
121
117
135
27
40
178
111
58
66
118
172
64
26
44
147
179
152
186
56
131
7
107
112
72
169
47
188
137
6
23
2
8
105
21
36
189
39
61
19
30
177
128
168
171
108
144
170
99
3
101
113
95
162
29
156
35
79
139
82
190
73
184
25
54
206
34
71
106
104
154
33
24
52
69
68
120
127
85
63
16
163
182
199

>  <PUBCHEM_MMFF94_PARTIAL_CHARGES>  (1) 
45
1 -0.43
10 -0.15
11 -0.15
12 -0.15
13 -0.15
14 0.54
15 0.12
16 0.1
17 -0.14
18 0.42
19 -0.15
2 -0.57
20 0.78
21 -0.15
22 -0.15
23 -0.15
24 -0.15
25 -0.15
26 -0.15
27 -0.15
28 -0.15
3 -0.57
31 0.15
32 0.15
33 0.15
34 0.15
35 0.37
36 0.37
39 0.15
4 -0.73
40 0.15
41 0.15
42 0.15
43 0.15
44 0.15
45 0.15
46 0.15
47 0.15
48 0.4
49 0.4
5 -0.55
6 -0.9
7 -0.14
8 0.44
9 0.09

>  <PUBCHEM_EFFECTIVE_ROTOR_COUNT>  (1) 
9

>  <PUBCHEM_PHARMACOPHORE_FEATURES>  (1) 
9
1 2 acceptor
1 3 acceptor
1 4 donor
1 5 donor
1 6 cation
1 6 donor
6 15 16 19 21 22 25 rings
6 17 23 24 26 27 28 rings
6 7 9 10 11 12 13 rings

>  <PUBCHEM_HEAVY_ATOM_COUNT>  (1) 
28

>  <PUBCHEM_ATOM_DEF_STEREO_COUNT>  (1) 
0

>  <PUBCHEM_ATOM_UDEF_STEREO_COUNT>  (1) 
0

>  <PUBCHEM_BOND_DEF_STEREO_COUNT>  (1) 
0

>  <PUBCHEM_BOND_UDEF_STEREO_COUNT>  (1) 
0

>  <PUBCHEM_ISOTOPIC_ATOM_COUNT>  (1) 
0

>  <PUBCHEM_COMPONENT_COUNT>  (1) 
1

>  <PUBCHEM_CACTVS_TAUTO_COUNT>  (1) 
4

>  <PUBCHEM_CONFORMER_ID>  (1) 
000013B400000001

>  <PUBCHEM_MMFF94_ENERGY>  (1) 
88.4368

>  <PUBCHEM_FEATURE_SELFOVERLAP>  (1) 
45.674

>  <PUBCHEM_SHAPE_FINGERPRINT>  (1) 
10533779 1 18335407007113177284
11273773 42 18411696595614511903
11399510 152 14996821248869991812
1200032 147 18260547818997958458
12013929 112 18341065047448105070
12895837 130 18411981386395905527
13248334 5 18121216481124043618
14150022 121 17823992331916487227
14251764 75 18333449859208674418
14394314 77 18334860511174185749
14428016 204 18040156218746188621
14617042 71 18338519634906621385
14664723 55 18411145744631845300
14840074 17 18259700103400457165
14931854 50 17704075083937847288
15064981 194 18045226183042765118
15198563 99 17628616846913373391
15510800 12 11599712995805335556
15685185 35 18335705000090554653
15840311 113 18335423405297378151
16120349 67 18342183293005982314
16992752 21 18129090295192635223
17899979 129 18340773654775170414
190975 80 8862941668027088622
19438510 23 18114181964768650530
2026 5 10447925066877364797
20691028 202 18262517134596869132
21298829 104 18408886247835897540
21307412 95 13758068632456558327
21585482 111 18189332381673261205
270888 7 18408040732305624026
2748736 6 18409162229749629944
2838139 119 18200590414779590430
397830 11 17968105209495025515
4058900 60 18408885135703553826
4169191 19 18335133164577688141
4258327 124 18411980257167477739
4366758 26 18409455777659026668
439807 62 10519983777263177097
445580 204 18342176683040400536
508180 173 17988360476804223208
54583773 228 18411973669220467669
5718773 13 10159701291720329062
57634706 229 17968950807024965082
57724786 102 18260540118222212914
5911458 16 18409167718586218884
59682541 52 16774083947509711102
6673363 416 18126005111854310263
7970288 3 9367355825149772156
9689198 14 18260553324671225794

>  <PUBCHEM_SHAPE_MULTIPOLES>  (1) 
543.68
25.25
4.11
1.41
13.8
0.34
-0.11
-31.23
4.69
0.02
0.36
0.03
0.05
-3.82

>  <PUBCHEM_SHAPE_SELFOVERLAP>  (1) 
1170.87

>  <PUBCHEM_SHAPE_VOLUME>  (1) 
296.6

>  <PUBCHEM_COORDINATE_TYPE>  (1) 
2
5
10

$$$$
