5045
     RDKit          3D

 28 30  0  0  0  0  0  0  0  0999 V2000
    4.1696   -0.5749    0.2856 O   0  0  0  0  0  0  0  0  0  0  0  0
   -4.3188   -1.5500   -1.5117 O   0  0  0  0  0  0  0  0  0  0  0  0
   -4.3086    2.4347    1.6511 O   0  0  0  0  0  0  0  0  0  0  0  0
    2.8430   -1.1315    2.0759 O   0  0  0  0  0  0  0  0  0  0  0  0
    2.6686   -2.2253    0.0374 N   0  0  0  0  0  0  0  0  0  0  0  0
   -3.9330    0.1643    0.0432 N   0  0  0  0  0  0  0  0  0  0  0  0
    0.2533   -2.5814    0.1053 C   0  0  0  0  0  0  0  0  0  0  0  0
    1.6143   -3.1496    0.3861 C   0  0  0  0  0  0  0  0  0  0  0  0
   -2.2675   -1.5316   -0.4150 C   0  0  0  0  0  0  0  0  0  0  0  0
   -0.4076   -1.8592    1.0919 C   0  0  0  0  0  0  0  0  0  0  0  0
   -0.3326   -2.7843   -1.1386 C   0  0  0  0  0  0  0  0  0  0  0  0
   -1.6726   -1.3324    0.8309 C   0  0  0  0  0  0  0  0  0  0  0  0
   -1.5975   -2.2575   -1.3997 C   0  0  0  0  0  0  0  0  0  0  0  0
   -3.5857   -0.9806   -0.6873 C   0  0  0  0  0  0  0  0  0  0  0  0
   -5.1439    0.8985    0.0087 C   0  0  0  0  0  0  0  0  0  0  0  0
    5.8458    1.1262    0.2472 C   0  0  0  0  0  0  0  0  0  0  0  0
    4.8062    0.4335    1.0784 C   0  0  0  0  0  0  0  0  0  0  0  0
    3.1921   -1.2961    0.9116 C   0  0  0  0  0  0  0  0  0  0  0  0
   -5.2987    2.0149    0.8134 C   0  0  0  0  0  0  0  0  0  0  0  0
   -6.1531    0.4750   -0.8406 C   0  0  0  0  0  0  0  0  0  0  0  0
    7.1481    0.6394    0.2272 C   0  0  0  0  0  0  0  0  0  0  0  0
    5.4977    2.2490   -0.4954 C   0  0  0  0  0  0  0  0  0  0  0  0
   -6.4967    2.7282    0.7679 C   0  0  0  0  0  0  0  0  0  0  0  0
   -7.3510    1.1883   -0.8859 C   0  0  0  0  0  0  0  0  0  0  0  0
   -7.5228    2.3148   -0.0818 C   0  0  0  0  0  0  0  0  0  0  0  0
    8.1147    1.2837   -0.5452 C   0  0  0  0  0  0  0  0  0  0  0  0
    6.4641    2.8932   -1.2679 C   0  0  0  0  0  0  0  0  0  0  0  0
    7.7726    2.4105   -1.2927 C   0  0  0  0  0  0  0  0  0  0  0  0
  1 17  1  0
  1 18  1  0
  2 14  2  0
  3 19  1  0
  4 18  2  0
  5  8  1  0
  5 18  1  0
  6 14  1  0
  6 15  1  0
  7  8  1  0
  7 10  2  0
  7 11  1  0
  9 12  2  0
  9 13  1  0
  9 14  1  0
 10 12  1  0
 11 13  2  0
 15 19  2  0
 15 20  1  0
 16 17  1  0
 16 21  2  0
 16 22  1  0
 19 23  1  0
 20 24  2  0
 21 26  1  0
 22 27  2  0
 23 25  2  0
 24 25  1  0
 26 28  2  0
 27 28  1  0
M  END
>  <PUBCHEM_COMPOUND_CID>  (1) 
5045

>  <PUBCHEM_CONFORMER_RMSD>  (1) 
1

>  <PUBCHEM_CONFORMER_DIVERSEORDER>  (1) 
1
154
104
150
64
171
147
166
128
21
127
71
178
122
60
196
16
157
50
167
141
48
235
79
40
205
224
56
230
88
188
35
107
44
37
51
159
240
125
108
12
142
109
206
38
54
243
225
180
33
98
36
110
160
66
218
158
121
59
138
76
118
241
136
24
100
89
185
209
114
106
67
94
194
132
49
153
204
207
186
187
87
140
73
210
174
226
27
9
103
13
176
214
81
242
139
116
19
22
213
228
222
200
191
34
55
69
23
169
18
68
86
184
227
168
233
102
53
83
137
70
145
177
14
134
192
162
211
99
90
199
202
112
10
41
238
17
198
111
62
208
131
152
57
155
46
11
123
215
115
29
30
20
80
93
189
6
181
133
164
82
8
217
144
47
173
124
5
190
151
239
165
84
229
4
28
221
232
201
220
52
31
63
77
216
39
236
85
45
75
148
182
197
101
58
234
3
113
119
92
126
61
78
183
2
120
195
43
203
91
172
117
72
143
156
223
149
161
7
26
146
175
129
193
130
170
231
163
105
179
65
42
97
96
95
25
32
212
15
219
237
74
135

>  <PUBCHEM_MMFF94_PARTIAL_CHARGES>  (1) 
44
1 -0.43
10 -0.15
11 -0.15
12 -0.15
13 -0.15
14 0.54
15 0.12
16 -0.14
17 0.42
18 0.78
19 0.08
2 -0.57
20 -0.15
21 -0.15
22 -0.15
23 -0.15
24 -0.15
25 -0.15
26 -0.15
27 -0.15
28 -0.15
3 -0.53
31 0.15
32 0.15
33 0.15
34 0.15
35 0.37
36 0.37
39 0.15
4 -0.57
40 0.15
41 0.15
42 0.15
43 0.15
44 0.15
45 0.15
46 0.15
47 0.15
48 0.45
5 -0.73
6 -0.55
7 -0.14
8 0.44
9 0.09

>  <PUBCHEM_EFFECTIVE_ROTOR_COUNT>  (1) 
9

>  <PUBCHEM_PHARMACOPHORE_FEATURES>  (1) 
8
1 2 acceptor
1 3 donor
1 4 acceptor
1 5 donor
1 6 donor
6 15 19 20 23 24 25 rings
6 16 21 22 26 27 28 rings
6 7 9 10 11 12 13 rings

>  <PUBCHEM_HEAVY_ATOM_COUNT>  (1) 
28

>  <PUBCHEM_ATOM_DEF_STEREO_COUNT>  (1) 
0

>  <PUBCHEM_ATOM_UDEF_STEREO_COUNT>  (1) 
0

>  <PUBCHEM_BOND_DEF_STEREO_COUNT>  (1) 
0

>  <PUBCHEM_BOND_UDEF_STEREO_COUNT>  (1) 
0

>  <PUBCHEM_ISOTOPIC_ATOM_COUNT>  (1) 
0

>  <PUBCHEM_COMPONENT_COUNT>  (1) 
1

>  <PUBCHEM_CACTVS_TAUTO_COUNT>  (1) 
12

>  <PUBCHEM_CONFORMER_ID>  (1) 
000013B500000001

>  <PUBCHEM_MMFF94_ENERGY>  (1) 
76.3069

>  <PUBCHEM_FEATURE_SELFOVERLAP>  (1) 
40.601

>  <PUBCHEM_SHAPE_FINGERPRINT>  (1) 
10533779 1 18335407007113177260
11273773 42 18411696599909472703
11399510 152 14996821248869985324
1200032 147 18260547818997958458
12013929 112 18341065047442823822
12895837 130 18412262861383152703
13248334 5 18121217584993935714
14150022 121 17823992331895381731
14251764 75 18333449859208661426
14394314 77 18261113001612362828
14428016 204 18040437693728167533
14617042 71 18338238159929910681
14664723 55 18411145748926812604
14840074 17 18259700103400450669
14931854 50 17704075083937847288
15064981 113 17417549003003138276
15064981 194 18117564152487773166
15198563 99 17628616846892280871
15510800 12 11527655401767407620
15685185 35 18335705000090554653
15840311 113 18335423405297371655
16120349 67 18341902917551422994
16992752 21 18129090295192635223
17899979 129 18340773654775176910
190975 80 8862941668027088622
19438510 23 18114181964768657026
2026 5 10447925066893195549
20691028 202 18262518234108503412
21298829 104 18409167718517640900
21307412 95 13758068632451283567
21585482 111 18189332381678535957
270888 7 18408040732305624026
2748736 6 18409443704726340600
2838139 119 18200590414779590430
397830 11 17968105209495025515
4058900 60 18408885140003789378
4169191 19 18335133164577688141
4258327 124 18412261732149463147
4366758 26 18409455777659026660
445580 204 18342176683045675288
508180 173 17988641951770319416
54583773 228 18411973669220461181
5718773 13 10591770887303849934
57634706 229 17968950807024971578
57724786 102 18260540118222212906
5911458 16 18409167718586225372
59682541 52 16702025253954867622
6673363 416 18126005111849042015
7970288 3 9367355825149772156
9689198 14 18260553324671225794

>  <PUBCHEM_SHAPE_MULTIPOLES>  (1) 
542.79
25.25
4.11
1.4
13.54
0.33
-0.1
-31.33
4.56
0.01
0.37
0.03
0.06
-3.8

>  <PUBCHEM_SHAPE_SELFOVERLAP>  (1) 
1170.281

>  <PUBCHEM_SHAPE_VOLUME>  (1) 
295.7

>  <PUBCHEM_COORDINATE_TYPE>  (1) 
2
5
10

$$$$
