5046
     RDKit          3D

 28 30  0  0  0  0  0  0  0  0999 V2000
    4.2646   -0.5092    0.3243 O   0  0  0  0  0  0  0  0  0  0  0  0
   -4.1848   -1.7528   -1.4910 O   0  0  0  0  0  0  0  0  0  0  0  0
    2.9420   -1.0513    2.1219 O   0  0  0  0  0  0  0  0  0  0  0  0
    2.8082   -2.2041    0.1131 N   0  0  0  0  0  0  0  0  0  0  0  0
   -3.8528    0.0124    0.0186 N   0  0  0  0  0  0  0  0  0  0  0  0
   -6.6617    3.6868    1.4664 N   0  0  0  0  0  0  0  0  0  0  0  0
    0.4025   -2.6209    0.1778 C   0  0  0  0  0  0  0  0  0  0  0  0
    1.7761   -3.1457    0.4813 C   0  0  0  0  0  0  0  0  0  0  0  0
   -2.1413   -1.6514   -0.3844 C   0  0  0  0  0  0  0  0  0  0  0  0
   -0.2828   -1.8896    1.1408 C   0  0  0  0  0  0  0  0  0  0  0  0
   -0.1704   -2.8726   -1.0632 C   0  0  0  0  0  0  0  0  0  0  0  0
   -1.5593   -1.4032    0.8588 C   0  0  0  0  0  0  0  0  0  0  0  0
   -1.4469   -2.3861   -1.3453 C   0  0  0  0  0  0  0  0  0  0  0  0
   -3.4716   -1.1425   -0.6786 C   0  0  0  0  0  0  0  0  0  0  0  0
   -5.0821    0.7137   -0.0424 C   0  0  0  0  0  0  0  0  0  0  0  0
    5.8964    1.2332    0.2485 C   0  0  0  0  0  0  0  0  0  0  0  0
    4.8701    0.5365    1.0926 C   0  0  0  0  0  0  0  0  0  0  0  0
   -5.2559    1.8436    0.7382 C   0  0  0  0  0  0  0  0  0  0  0  0
    3.3022   -1.2383    0.9645 C   0  0  0  0  0  0  0  0  0  0  0  0
   -6.0824    0.2521   -0.8806 C   0  0  0  0  0  0  0  0  0  0  0  0
   -6.4672    2.5330    0.6789 C   0  0  0  0  0  0  0  0  0  0  0  0
    7.2110    0.7801    0.2487 C   0  0  0  0  0  0  0  0  0  0  0  0
    5.5239    2.3260   -0.5264 C   0  0  0  0  0  0  0  0  0  0  0  0
   -7.2937    0.9414   -0.9401 C   0  0  0  0  0  0  0  0  0  0  0  0
   -7.4860    2.0819   -0.1603 C   0  0  0  0  0  0  0  0  0  0  0  0
    8.1653    1.4281   -0.5358 C   0  0  0  0  0  0  0  0  0  0  0  0
    6.4780    2.9739   -1.3110 C   0  0  0  0  0  0  0  0  0  0  0  0
    7.7987    2.5249   -1.3156 C   0  0  0  0  0  0  0  0  0  0  0  0
  1 17  1  0
  1 19  1  0
  2 14  2  0
  3 19  2  0
  4  8  1  0
  4 19  1  0
  5 14  1  0
  5 15  1  0
  6 21  1  0
  7  8  1  0
  7 10  2  0
  7 11  1  0
  9 12  2  0
  9 13  1  0
  9 14  1  0
 10 12  1  0
 11 13  2  0
 15 18  2  0
 15 20  1  0
 16 17  1  0
 16 22  2  0
 16 23  1  0
 18 21  1  0
 20 24  2  0
 21 25  2  0
 22 26  1  0
 23 27  2  0
 24 25  1  0
 26 28  2  0
 27 28  1  0
M  END
>  <PUBCHEM_COMPOUND_CID>  (1) 
5046

>  <PUBCHEM_CONFORMER_RMSD>  (1) 
1

>  <PUBCHEM_CONFORMER_DIVERSEORDER>  (1) 
1
206
90
80
227
233
218
194
188
84
139
208
192
161
131
144
211
75
115
48
45
164
77
165
28
81
185
101
47
54
89
254
248
74
59
91
73
169
37
65
38
31
142
26
163
112
96
62
95
141
29
14
150
168
130
162
191
34
147
63
124
145
30
114
209
253
72
60
53
117
207
19
4
204
129
12
205
177
104
18
166
76
20
122
13
148
155
100
156
135
247
106
71
5
123
102
103
240
159
243
68
33
66
202
86
224
109
245
244
78
203
64
187
255
230
82
3
116
56
183
70
127
23
125
215
182
17
152
22
136
158
172
137
21
193
36
25
241
189
160
52
128
179
157
173
40
98
198
213
176
229
49
15
110
210
44
134
220
83
217
107
178
151
214
8
108
237
200
167
236
232
6
238
16
235
51
171
99
7
216
231
46
175
174
153
24
219
146
69
195
190
228
223
41
250
2
170
186
154
58
93
32
79
9
35
57
87
239
121
246
180
196
113
126
249
143
132
67
105
199
251
11
138
61
197
256
221
149
55
201
43
226
88
225
120
140
181
42
133
212
234
27
10
39
94
242
50
184
97
111
118
257
252
119
222
85
92

>  <PUBCHEM_MMFF94_PARTIAL_CHARGES>  (1) 
45
1 -0.43
10 -0.15
11 -0.15
12 -0.15
13 -0.15
14 0.54
15 0.12
16 -0.14
17 0.42
18 -0.15
19 0.78
2 -0.57
20 -0.15
21 0.1
22 -0.15
23 -0.15
24 -0.15
25 -0.15
26 -0.15
27 -0.15
28 -0.15
3 -0.57
31 0.15
32 0.15
33 0.15
34 0.15
35 0.37
36 0.37
39 0.15
4 -0.73
40 0.15
41 0.15
42 0.15
43 0.15
44 0.15
45 0.15
46 0.15
47 0.15
48 0.4
49 0.4
5 -0.55
6 -0.9
7 -0.14
8 0.44
9 0.09

>  <PUBCHEM_EFFECTIVE_ROTOR_COUNT>  (1) 
9

>  <PUBCHEM_PHARMACOPHORE_FEATURES>  (1) 
9
1 2 acceptor
1 3 acceptor
1 4 donor
1 5 donor
1 6 cation
1 6 donor
6 15 18 20 21 24 25 rings
6 16 22 23 26 27 28 rings
6 7 9 10 11 12 13 rings

>  <PUBCHEM_HEAVY_ATOM_COUNT>  (1) 
28

>  <PUBCHEM_ATOM_DEF_STEREO_COUNT>  (1) 
0

>  <PUBCHEM_ATOM_UDEF_STEREO_COUNT>  (1) 
0

>  <PUBCHEM_BOND_DEF_STEREO_COUNT>  (1) 
0

>  <PUBCHEM_BOND_UDEF_STEREO_COUNT>  (1) 
0

>  <PUBCHEM_ISOTOPIC_ATOM_COUNT>  (1) 
0

>  <PUBCHEM_COMPONENT_COUNT>  (1) 
1

>  <PUBCHEM_CACTVS_TAUTO_COUNT>  (1) 
4

>  <PUBCHEM_CONFORMER_ID>  (1) 
000013B600000001

>  <PUBCHEM_MMFF94_ENERGY>  (1) 
86.2668

>  <PUBCHEM_FEATURE_SELFOVERLAP>  (1) 
45.671

>  <PUBCHEM_SHAPE_FINGERPRINT>  (1) 
10280341 67 18269821134347738488
10533779 1 18263066842844941916
10920273 25 18410020943814675996
11273773 42 18411132554739449383
1200032 147 18260547823282324314
12013929 112 18341626893552687798
12895837 130 18412544336365118559
13248334 5 18192992608859598066
13383665 225 17989486300298270951
13782708 43 11095880467137807835
13944108 23 18340206281015717216
14150022 121 17896893247172930067
14251764 75 18260546749355844610
14394314 77 18334860519663874061
14428016 204 18040155123513684423
14617042 71 18337956689232317129
14664723 55 18410018749460882436
14931854 50 17632581539401852776
15510800 12 11671771693681552550
15803439 3 16773799216383593742
15840311 113 18335140835104058975
16992727 255 18341615940959158568
16992752 21 18128808824505636583
17899979 129 18411986823877665550
190975 80 9007057959930632030
19438510 23 18113619014809954474
2026 5 10447926166367867541
20691028 202 18190178069882472588
21298829 104 18409449193473278444
21307412 95 13830127330253680015
21585482 111 18261671454993416533
270888 7 18335419097440086866
2748736 6 18410005546314474912
2838139 119 18271803592482628278
3418910 222 18412829088945532825
393628 194 18334860545185517741
397830 11 17967822639248971827
4058900 60 18408602574094862026
406291 66 9727637198175109036
4169191 19 18335134268347340413
4258327 124 18412260641233174571
4366758 26 18409737261246744852
508180 173 18059856224716462896
54583773 228 18411409632603202383
5718773 13 10303817579376410446
57634706 229 17896047692840218730
57724786 102 18187637008364108362
5911458 16 18408886243514614604
59682541 52 16845578595915578230
6673363 416 18053666055745770015
9689198 14 18260271858337229746

>  <PUBCHEM_SHAPE_MULTIPOLES>  (1) 
543.68
25.96
4.37
1.4
10.86
0.34
0.1
33.99
-3.93
-0.66
-0.14
0.1
-0.02
-4.42

>  <PUBCHEM_SHAPE_SELFOVERLAP>  (1) 
1170.302

>  <PUBCHEM_SHAPE_VOLUME>  (1) 
296.9

>  <PUBCHEM_COORDINATE_TYPE>  (1) 
2
5
10

$$$$
