5055
     RDKit          3D

 11 11  0  0  0  0  0  0  0  0999 V2000
    1.4865    0.0467    0.8501 O   0  0  0  0  0  0  0  0  0  0  0  0
   -2.8388   -1.7436   -0.0849 O   0  0  0  0  0  0  0  0  0  0  0  0
    2.0526   -0.2399   -1.4031 O   0  0  0  0  0  0  0  0  0  0  0  0
    0.1906    0.2294    0.4769 C   0  0  0  0  0  0  0  0  0  0  0  0
   -0.6704   -0.8644    0.3862 C   0  0  0  0  0  0  0  0  0  0  0  0
   -0.2769    1.5109    0.1852 C   0  0  0  0  0  0  0  0  0  0  0  0
   -1.9986   -0.6766    0.0037 C   0  0  0  0  0  0  0  0  0  0  0  0
   -1.6051    1.6987   -0.1972 C   0  0  0  0  0  0  0  0  0  0  0  0
   -2.4659    0.6050   -0.2879 C   0  0  0  0  0  0  0  0  0  0  0  0
    2.3644   -0.1893   -0.2208 C   0  0  0  0  0  0  0  0  0  0  0  0
    3.7615   -0.3769    0.2918 C   0  0  0  0  0  0  0  0  0  0  0  0
  1  4  1  0
  1 10  1  0
  2  7  1  0
  3 10  2  0
  4  5  2  0
  4  6  1  0
  5  7  1  0
  6  8  2  0
  7  9  2  0
  8  9  1  0
 10 11  1  0
M  END
>  <PUBCHEM_COMPOUND_CID>  (1) 
5055

>  <PUBCHEM_CONFORMER_RMSD>  (1) 
0.4

>  <PUBCHEM_CONFORMER_DIVERSEORDER>  (1) 
2
25
8
29
15
5
23
12
28
9
11
18
32
4
24
30
26
27
7
13
31
6
14
10
16
20
17
1
21
19
3
22

>  <PUBCHEM_MMFF94_PARTIAL_CHARGES>  (1) 
16
1 -0.23
10 0.66
11 0.06
12 0.15
13 0.15
14 0.15
15 0.15
19 0.45
2 -0.53
3 -0.57
4 0.08
5 -0.15
6 -0.15
7 0.08
8 -0.15
9 -0.15

>  <PUBCHEM_EFFECTIVE_ROTOR_COUNT>  (1) 
2

>  <PUBCHEM_PHARMACOPHORE_FEATURES>  (1) 
3
1 2 donor
1 3 acceptor
6 4 5 6 7 8 9 rings

>  <PUBCHEM_HEAVY_ATOM_COUNT>  (1) 
11

>  <PUBCHEM_ATOM_DEF_STEREO_COUNT>  (1) 
0

>  <PUBCHEM_ATOM_UDEF_STEREO_COUNT>  (1) 
0

>  <PUBCHEM_BOND_DEF_STEREO_COUNT>  (1) 
0

>  <PUBCHEM_BOND_UDEF_STEREO_COUNT>  (1) 
0

>  <PUBCHEM_ISOTOPIC_ATOM_COUNT>  (1) 
0

>  <PUBCHEM_COMPONENT_COUNT>  (1) 
1

>  <PUBCHEM_CACTVS_TAUTO_COUNT>  (1) 
3

>  <PUBCHEM_CONFORMER_ID>  (1) 
000013BF00000002

>  <PUBCHEM_MMFF94_ENERGY>  (1) 
29.4649

>  <PUBCHEM_FEATURE_SELFOVERLAP>  (1) 
15.223

>  <PUBCHEM_SHAPE_FINGERPRINT>  (1) 
12716758 59 18268713796692689542
12897270 3 18411138017615992172
12932764 1 18261680281298168392
13024252 1 17095249098748194889
14128692 85 18335423529529760285
15219456 202 18059281167197589856
15775835 57 17822293414341280468
16945 1 18338514145172921945
20201158 50 17989203707580361110
20653085 51 15068623802958751727
20871998 184 18273214209607495911
20871998 22 18122623022888241227
21040471 1 18121207684982411761
21061003 4 16989125361711263000
23402539 116 18339066125500054332
23552423 10 18187644759983050617
23559900 14 18269828719628689330
2748010 2 18192979633857172817
29004967 10 16917348121537032608
3248919 1 17704073954292954152
369184 2 18411418375869648344
6333449 129 18342171133489090233

>  <PUBCHEM_SHAPE_MULTIPOLES>  (1) 
208.77
4.86
1.49
0.85
3.44
0.13
-0.14
-1.17
-0.38
-1.37
0
0.38
-0.01
0.07

>  <PUBCHEM_SHAPE_SELFOVERLAP>  (1) 
432.883

>  <PUBCHEM_SHAPE_VOLUME>  (1) 
118

>  <PUBCHEM_COORDINATE_TYPE>  (1) 
2
5
10

$$$$
