5061
     RDKit          3D

 18 19  0  0  0  0  0  0  0  0999 V2000
    4.2711    2.7055    0.1331 Cl  0  0  0  0  0  0  0  0  0  0  0  0
    4.2938   -2.6914    0.1256 Cl  0  0  0  0  0  0  0  0  0  0  0  0
   -4.4898    1.2170    0.4427 N   0  0  0  0  0  0  0  0  0  0  0  0
   -0.3031    0.0223   -2.7645 N   0  0  0  0  0  0  0  0  0  0  0  0
    1.3536   -0.0061    0.5071 C   0  0  0  0  0  0  0  0  0  0  0  0
   -0.0894   -0.0127    0.6920 C   0  0  0  0  0  0  0  0  0  0  0  0
   -2.4813   -0.0202    0.0181 C   0  0  0  0  0  0  0  0  0  0  0  0
   -1.0360   -0.0055   -0.2806 C   0  0  0  0  0  0  0  0  0  0  0  0
    2.0506   -1.2108    0.4159 C   0  0  0  0  0  0  0  0  0  0  0  0
    2.0400    1.2051    0.4199 C   0  0  0  0  0  0  0  0  0  0  0  0
    3.4235    1.2114    0.2416 C   0  0  0  0  0  0  0  0  0  0  0  0
    3.4340   -1.2045    0.2376 C   0  0  0  0  0  0  0  0  0  0  0  0
   -3.1498   -1.2184    0.1476 C   0  0  0  0  0  0  0  0  0  0  0  0
    4.1204    0.0067    0.1505 C   0  0  0  0  0  0  0  0  0  0  0  0
   -3.1671    1.1599    0.1686 C   0  0  0  0  0  0  0  0  0  0  0  0
   -4.5113   -1.2005    0.4294 C   0  0  0  0  0  0  0  0  0  0  0  0
   -5.1291    0.0322    0.5664 C   0  0  0  0  0  0  0  0  0  0  0  0
   -0.6300    0.0099   -1.6510 C   0  0  0  0  0  0  0  0  0  0  0  0
  1 11  1  0
  2 12  1  0
  3 15  2  0
  3 17  1  0
  4 18  3  0
  5  6  1  0
  5  9  2  0
  5 10  1  0
  6  8  2  0
  7  8  1  0
  7 13  2  0
  7 15  1  0
  8 18  1  0
  9 12  1  0
 10 11  2  0
 11 14  1  0
 12 14  2  0
 13 16  1  0
 16 17  2  0
M  END
>  <PUBCHEM_COMPOUND_CID>  (1) 
5061

>  <PUBCHEM_CONFORMER_RMSD>  (1) 
0.6

>  <PUBCHEM_CONFORMER_DIVERSEORDER>  (1) 
1
10
6
8
4
9
7
2
5
3
11

>  <PUBCHEM_MMFF94_PARTIAL_CHARGES>  (1) 
26
1 -0.18
10 -0.15
11 0.18
12 0.18
13 -0.15
14 -0.15
15 0.16
16 -0.15
17 0.16
18 0.49
19 0.15
2 -0.18
20 0.15
21 0.15
22 0.15
23 0.15
24 0.15
25 0.15
26 0.15
3 -0.62
4 -0.56
5 0.03
6 -0.18
7 0.03
8 0.04
9 -0.15

>  <PUBCHEM_EFFECTIVE_ROTOR_COUNT>  (1) 
2

>  <PUBCHEM_PHARMACOPHORE_FEATURES>  (1) 
4
1 3 acceptor
1 4 acceptor
6 3 7 13 15 16 17 rings
6 5 9 10 11 12 14 rings

>  <PUBCHEM_HEAVY_ATOM_COUNT>  (1) 
18

>  <PUBCHEM_ATOM_DEF_STEREO_COUNT>  (1) 
0

>  <PUBCHEM_ATOM_UDEF_STEREO_COUNT>  (1) 
0

>  <PUBCHEM_BOND_DEF_STEREO_COUNT>  (1) 
0

>  <PUBCHEM_BOND_UDEF_STEREO_COUNT>  (1) 
1

>  <PUBCHEM_ISOTOPIC_ATOM_COUNT>  (1) 
0

>  <PUBCHEM_COMPONENT_COUNT>  (1) 
1

>  <PUBCHEM_CACTVS_TAUTO_COUNT>  (1) 
1

>  <PUBCHEM_CONFORMER_ID>  (1) 
000013C500000001

>  <PUBCHEM_MMFF94_ENERGY>  (1) 
50.8923

>  <PUBCHEM_FEATURE_SELFOVERLAP>  (1) 
20.297

>  <PUBCHEM_SHAPE_FINGERPRINT>  (1) 
11132069 177 17240758523117698373
11370993 144 18335421227675066529
11405975 8 18411137996141234147
11552529 35 17915743287399180651
12107183 9 17908709427657455889
12236239 1 17775284971806536824
12507560 40 18335420162597173077
12592029 89 17489594428560140951
12633257 1 18198912418032463667
12670546 56 18411697690773234137
12730499 353 18335994172228389090
12892183 10 18411139177331268385
13167823 11 18411980260835042011
13533116 47 18412823607934091499
13583140 156 18058728147102749907
13675066 3 17845924148368183762
13760787 19 18202002182797398702
13955234 65 18411417332825598794
14252887 29 17312821584606835216
14289901 80 18339921618603190595
14341114 176 18410019844682525345
15196674 1 18410856564298754059
15239154 128 18410576192954948297
15342168 16 18043814406055214140
15806764 133 17895465922012812164
15848702 151 18187364328625208286
16752209 62 15913057482002333992
17834072 33 18412544340264264923
17844677 252 18411145705660498593
1813 80 16660646262812962871
18186145 218 17967526848612941426
18222031 100 16515688853246691983
18785283 64 18260544567939758392
19422 9 18343300361948056170
19784866 34 18127121108105054256
20645477 70 18411982434230931474
21065198 48 18341897398428380673
21065198 57 18410012109187864851
21065199 12 18408604777327831121
22854114 59 18113614620589061081
23402539 116 16081363033990960178
23557571 272 17095234809391903972
23559900 14 18339357470412123826
31174 14 18261104163201727894
314173 85 16732983111477273813
3286 77 18261110730064512958
34934 24 17489018383689212608
4072396 5 16845291579929752347
4214541 1 18410575042151366593
449060 50 18261672666094409529
45790113 50 18412544284461371060
465052 167 17917996113646382311
474 4 18189335852196531952
5104073 3 18409168809576023569
5281201 14 18333732390546801764
6049 1 17822558405549780220
621550 34 17968368039891700412
633830 44 18409161095767565523
77779 3 18410856564209057267
7970288 3 17978509737636982642
8272917 22 18272658913201510230
90127 26 18113623352642689553
9709674 26 18335144232075504595
9971528 1 17821731636824071997

>  <PUBCHEM_SHAPE_MULTIPOLES>  (1) 
364.21
10.79
2.14
1.21
5.1
0.05
-1.13
0.09
2.52
-3.47
0.27
0.33
-0.03
0.03

>  <PUBCHEM_SHAPE_SELFOVERLAP>  (1) 
766.991

>  <PUBCHEM_SHAPE_VOLUME>  (1) 
204.1

>  <PUBCHEM_COORDINATE_TYPE>  (1) 
2
5
10

$$$$
