5063
     RDKit          3D

 28 29  0  0  0  0  0  0  0  0999 V2000
   -4.2448   -0.4320    0.2398 O   0  0  0  0  0  0  0  0  0  0  0  0
    4.2424   -0.4605   -0.2381 O   0  0  0  0  0  0  0  0  0  0  0  0
   -3.7158   -1.1548    2.3624 O   0  0  0  0  0  0  0  0  0  0  0  0
    3.7010   -1.1757   -2.3602 O   0  0  0  0  0  0  0  0  0  0  0  0
   -4.5555    0.7609    0.9070 N   0  0  0  0  0  0  0  0  0  0  0  0
    4.5694    0.7279   -0.9056 N   0  0  0  0  0  0  0  0  0  0  0  0
   -3.4989   -2.5383    0.5141 N   0  0  0  0  0  0  0  0  0  0  0  0
    3.4663   -2.5563   -0.5117 N   0  0  0  0  0  0  0  0  0  0  0  0
   -4.8298    3.7640   -1.8838 C   0  0  0  0  0  0  0  0  0  0  0  0
    4.8890    3.7266    1.8850 C   0  0  0  0  0  0  0  0  0  0  0  0
   -4.6459    4.0391   -0.3901 C   0  0  0  0  0  0  0  0  0  0  0  0
   -4.3691    2.3525   -2.2530 C   0  0  0  0  0  0  0  0  0  0  0  0
    4.4088    2.3218    2.2547 C   0  0  0  0  0  0  0  0  0  0  0  0
    4.7076    4.0043    0.3915 C   0  0  0  0  0  0  0  0  0  0  0  0
   -5.3716    3.0086    0.4670 C   0  0  0  0  0  0  0  0  0  0  0  0
   -5.0884    1.2891   -1.4309 C   0  0  0  0  0  0  0  0  0  0  0  0
    5.1121    1.2484    1.4317 C   0  0  0  0  0  0  0  0  0  0  0  0
    5.4177    2.9637   -0.4663 C   0  0  0  0  0  0  0  0  0  0  0  0
   -4.9640    1.6230    0.0353 C   0  0  0  0  0  0  0  0  0  0  0  0
    4.9910    1.5840   -0.0343 C   0  0  0  0  0  0  0  0  0  0  0  0
   -0.8145   -3.7088   -0.0803 C   0  0  0  0  0  0  0  0  0  0  0  0
    0.7093   -3.7567    0.0565 C   0  0  0  0  0  0  0  0  0  0  0  0
   -1.4939   -3.7427    1.2931 C   0  0  0  0  0  0  0  0  0  0  0  0
    1.4434   -3.7327   -1.2892 C   0  0  0  0  0  0  0  0  0  0  0  0
   -3.0158   -3.7092    1.1930 C   0  0  0  0  0  0  0  0  0  0  0  0
    2.9660   -3.7198   -1.1901 C   0  0  0  0  0  0  0  0  0  0  0  0
   -3.8109   -1.3520    1.1548 C   0  0  0  0  0  0  0  0  0  0  0  0
    3.7946   -1.3743   -1.1526 C   0  0  0  0  0  0  0  0  0  0  0  0
  1  5  1  0
  1 27  1  0
  2  6  1  0
  2 28  1  0
  3 27  2  0
  4 28  2  0
  5 19  2  3
  6 20  2  3
  7 25  1  0
  7 27  1  0
  8 26  1  0
  8 28  1  0
  9 11  1  0
  9 12  1  0
 10 13  1  0
 10 14  1  0
 11 15  1  0
 12 16  1  0
 13 17  1  0
 14 18  1  0
 15 19  1  0
 16 19  1  0
 17 20  1  0
 18 20  1  0
 21 22  1  0
 21 23  1  0
 22 24  1  0
 23 25  1  0
 24 26  1  0
M  END
>  <PUBCHEM_COMPOUND_CID>  (1) 
5063

>  <PUBCHEM_CONFORMER_RMSD>  (1) 
1.4

>  <PUBCHEM_CONFORMER_DIVERSEORDER>  (1) 
2
57
28
31
4
29
46
56
1
8
48
51
36
53
61
18
34
24
30
40
22
35
33
39
59
21
26
5
16
47
42
55
20
13
43
52
15
11
19
37
60
54
45
58
41
6
44
62
38
14
25
50
27
12
10
23
32
9
7
17
63
3
49

>  <PUBCHEM_MMFF94_PARTIAL_CHARGES>  (1) 
20
1 -0.09
15 0.06
16 0.06
17 0.06
18 0.06
19 0.33
2 -0.09
20 0.33
25 0.3
26 0.3
27 0.78
28 0.78
3 -0.57
4 -0.57
5 -0.51
6 -0.51
61 0.37
62 0.37
7 -0.73
8 -0.73

>  <PUBCHEM_EFFECTIVE_ROTOR_COUNT>  (1) 
15

>  <PUBCHEM_PHARMACOPHORE_FEATURES>  (1) 
9
1 3 acceptor
1 4 acceptor
1 5 acceptor
1 6 acceptor
1 7 donor
1 8 donor
4 21 22 23 24 hydrophobe
6 10 13 14 17 18 20 rings
6 9 11 12 15 16 19 rings

>  <PUBCHEM_HEAVY_ATOM_COUNT>  (1) 
28

>  <PUBCHEM_ATOM_DEF_STEREO_COUNT>  (1) 
0

>  <PUBCHEM_ATOM_UDEF_STEREO_COUNT>  (1) 
0

>  <PUBCHEM_BOND_DEF_STEREO_COUNT>  (1) 
0

>  <PUBCHEM_BOND_UDEF_STEREO_COUNT>  (1) 
0

>  <PUBCHEM_ISOTOPIC_ATOM_COUNT>  (1) 
0

>  <PUBCHEM_COMPONENT_COUNT>  (1) 
1

>  <PUBCHEM_CACTVS_TAUTO_COUNT>  (1) 
3

>  <PUBCHEM_CONFORMER_ID>  (1) 
000013C700000002

>  <PUBCHEM_MMFF94_ENERGY>  (1) 
24.0883

>  <PUBCHEM_FEATURE_SELFOVERLAP>  (1) 
45.702

>  <PUBCHEM_SHAPE_FINGERPRINT>  (1) 
10838868 217 18342162355499162074
11374522 34 18267583696514703081
11399510 152 17604733100283301939
12173638 102 15972408355065979720
133061 13 18338230565371923494
14040221 275 18120063287590955424
15320291 9 18410854352032484812
15721738 15 18200585904552786224
16067690 210 17613426066998213386
16708801 149 18338781382127467608
16992828 155 17622444261226748454
1768 210 18337099095689284959
21388113 180 18410572885756140916
22864921 10 18192439786659483140
376196 1 18410577249417410211
437795 171 18338515365081212776
437795 96 18408885161272487909
4573279 150 9654457136557776279
46848820 73 18125692708592508193
5047190 47 17761205523809047557
550186 83 16371302004051882110
6201320 221 7850136384894315577
9982175 69 18335686274476055093

>  <PUBCHEM_SHAPE_MULTIPOLES>  (1) 
532.83
17.47
8.22
2.15
0.6
2.15
0
-21.5
-0.13
-0.23
0.05
0.01
-0.44
7.34

>  <PUBCHEM_SHAPE_SELFOVERLAP>  (1) 
1055.883

>  <PUBCHEM_SHAPE_VOLUME>  (1) 
311.9

>  <PUBCHEM_COORDINATE_TYPE>  (1) 
2
5
10

$$$$
