5078
     RDKit          3D

 20 22  0  0  0  0  0  0  0  0999 V2000
   -1.5592   -3.0941   -0.8201 N   0  0  0  0  0  0  0  0  0  0  0  0
   -3.9948    2.1694   -0.0009 N   0  0  0  0  0  0  0  0  0  0  0  0
    3.1848    0.8772    0.3999 N   0  0  0  0  0  0  0  0  0  0  0  0
    4.2311    0.5185   -0.3363 N   0  0  0  0  0  0  0  0  0  0  0  0
    3.5195    2.6422   -0.8014 N   0  0  0  0  0  0  0  0  0  0  0  0
   -2.1882   -1.1721    0.0949 C   0  0  0  0  0  0  0  0  0  0  0  0
   -0.7774   -1.2919    0.2370 C   0  0  0  0  0  0  0  0  0  0  0  0
   -3.0268   -0.0491    0.5611 C   0  0  0  0  0  0  0  0  0  0  0  0
   -0.4084   -2.5064   -0.3453 C   0  0  0  0  0  0  0  0  0  0  0  0
   -3.1870    1.0595   -0.4952 C   0  0  0  0  0  0  0  0  0  0  0  0
    0.2242   -0.4810    0.8069 C   0  0  0  0  0  0  0  0  0  0  0  0
   -2.6401   -2.2954   -0.5586 C   0  0  0  0  0  0  0  0  0  0  0  0
    1.5547   -0.9144    0.7733 C   0  0  0  0  0  0  0  0  0  0  0  0
    0.9174   -2.9524   -0.3863 C   0  0  0  0  0  0  0  0  0  0  0  0
    1.8936   -2.1314    0.1853 C   0  0  0  0  0  0  0  0  0  0  0  0
    2.6212   -0.0607    1.3756 C   0  0  0  0  0  0  0  0  0  0  0  0
   -4.0906    3.2254   -1.0099 C   0  0  0  0  0  0  0  0  0  0  0  0
   -3.4323    2.7024    1.2408 C   0  0  0  0  0  0  0  0  0  0  0  0
    2.7582    2.1246    0.1346 C   0  0  0  0  0  0  0  0  0  0  0  0
    4.4001    1.6301   -1.0557 C   0  0  0  0  0  0  0  0  0  0  0  0
  1  9  1  0
  1 12  1  0
  2 10  1  0
  2 17  1  0
  2 18  1  0
  3  4  1  0
  3 16  1  0
  3 19  1  0
  4 20  2  0
  5 19  2  0
  5 20  1  0
  6  7  1  0
  6  8  1  0
  6 12  2  0
  7  9  2  0
  7 11  1  0
  8 10  1  0
  9 14  1  0
 11 13  2  0
 13 15  1  0
 13 16  1  0
 14 15  2  0
M  END
>  <PUBCHEM_COMPOUND_CID>  (1) 
5078

>  <PUBCHEM_CONFORMER_RMSD>  (1) 
0.8

>  <PUBCHEM_CONFORMER_DIVERSEORDER>  (1) 
1
18
58
49
28
33
17
53
56
51
63
24
41
47
50
4
57
44
38
62
19
59
39
30
2
27
26
60
8
21
25
14
12
36
35
9
29
42
20
43
15
54
48
10
34
11
31
16
22
52
55
23
13
3
5
40
6
61
45
37
46
7
32

>  <PUBCHEM_MMFF94_PARTIAL_CHARGES>  (1) 
26
1 0.03
10 0.27
11 -0.15
12 -0.3
13 -0.14
14 -0.15
15 -0.15
16 0.4
17 0.27
18 0.27
19 0.04
2 -0.81
20 0.37
25 0.15
26 0.15
27 0.27
28 0.15
29 0.15
3 0.31
38 0.15
39 0.15
4 -0.71
5 -0.57
6 -0.18
8 0.18
9 -0.15

>  <PUBCHEM_EFFECTIVE_ROTOR_COUNT>  (1) 
5

>  <PUBCHEM_PHARMACOPHORE_FEATURES>  (1) 
8
1 1 cation
1 1 donor
1 2 cation
3 3 5 19 cation
3 4 5 20 cation
5 1 6 7 9 12 rings
5 3 4 5 19 20 rings
6 7 9 11 13 14 15 rings

>  <PUBCHEM_HEAVY_ATOM_COUNT>  (1) 
20

>  <PUBCHEM_ATOM_DEF_STEREO_COUNT>  (1) 
0

>  <PUBCHEM_ATOM_UDEF_STEREO_COUNT>  (1) 
0

>  <PUBCHEM_BOND_DEF_STEREO_COUNT>  (1) 
0

>  <PUBCHEM_BOND_UDEF_STEREO_COUNT>  (1) 
0

>  <PUBCHEM_ISOTOPIC_ATOM_COUNT>  (1) 
0

>  <PUBCHEM_COMPONENT_COUNT>  (1) 
1

>  <PUBCHEM_CACTVS_TAUTO_COUNT>  (1) 
1

>  <PUBCHEM_CONFORMER_ID>  (1) 
000013D600000001

>  <PUBCHEM_MMFF94_ENERGY>  (1) 
32.2778

>  <PUBCHEM_FEATURE_SELFOVERLAP>  (1) 
43.466

>  <PUBCHEM_SHAPE_FINGERPRINT>  (1) 
10498660 4 18194391419186660655
10670039 82 18338520858227917844
10871710 139 18119815956601394957
11221954 11 18335424530357139889
11615756 256 18339923714821595953
12100795 323 18042114367457160357
12173636 292 18196645409586888174
13583140 156 17532931602502405251
14251751 93 18341615974659013620
14251757 17 17915770646129165068
14955137 171 17616544295007771395
14957384 54 18042392543935195705
15003188 100 17831845864622595949
15163728 17 18263948629652409612
15342168 16 18265612092256872805
17134986 127 18339364067545096310
17834072 32 18337671919281915173
17974551 9 14928416064655150269
18186145 218 17701829993021470226
18785283 64 18122915226688216427
19930381 70 16248846520548964461
20621476 13 17832136130996531957
21388113 180 17753601344235475237
21475661 188 17827070706855154333
21860390 5 17696466287258529173
21864079 5 18262798587607918512
22907989 373 18198893893928271375
23558518 356 18337377271788960979
23559900 14 17988934323691677534
26353 1 16549149427131441519
474 4 18123745358119875673
5048184 11 18410856542666252869
5283173 99 18198347467226402944
54672768 99 18120932806764556141
6287921 2 18053105017290347389
7808743 9 18338238274954563200

>  <PUBCHEM_SHAPE_MULTIPOLES>  (1) 
386.69
8.35
4.41
1.09
0.6
0.2
0.12
9.38
-1.34
-2.01
-1.22
0.04
0.37
-0.88

>  <PUBCHEM_SHAPE_SELFOVERLAP>  (1) 
832.031

>  <PUBCHEM_SHAPE_VOLUME>  (1) 
216.5

>  <PUBCHEM_COORDINATE_TYPE>  (1) 
2
5
10

$$$$
