508
     RDKit          3D

 35 37  0  0  1  0  0  0  0  0999 V2000
   -2.6334   -2.5187   -1.3332 P   0  0  0  0  0  0  0  0  0  0  0  0
   -4.3378   -0.9182    0.4506 P   0  0  0  0  0  0  0  0  0  0  0  0
   -3.4862    1.9057    0.3688 P   0  0  0  0  0  0  0  0  0  0  0  0
   -1.3759    2.5546   -1.5744 P   0  0  0  0  0  0  0  0  0  0  0  0
    0.6003   -0.0768    0.1766 O   0  0  0  0  0  0  0  0  0  0  0  0
    0.3189    0.9332    3.2801 O   0  0  0  0  0  0  0  0  0  0  0  0
    1.6264   -2.1740    2.0729 O   0  0  0  0  0  0  0  0  0  0  0  0
   -1.1745   -1.8762   -1.0556 O   0  0  0  0  0  0  0  0  0  0  0  0
   -3.4755   -2.2129    0.0127 O   0  0  0  0  0  0  0  0  0  0  0  0
   -2.3903   -4.1166   -1.2641 O   0  0  0  0  0  0  0  0  0  0  0  0
   -3.2992   -2.0470   -2.5934 O   0  0  0  0  0  0  0  0  0  0  0  0
   -3.3645    0.3192    0.0957 O   0  0  0  0  0  0  0  0  0  0  0  0
   -4.2979   -0.9849    2.0655 O   0  0  0  0  0  0  0  0  0  0  0  0
   -5.7122   -0.8500   -0.1469 O   0  0  0  0  0  0  0  0  0  0  0  0
   -2.0586    2.4845   -0.1133 O   0  0  0  0  0  0  0  0  0  0  0  0
   -3.4160    2.0139    1.9805 O   0  0  0  0  0  0  0  0  0  0  0  0
   -4.6858    2.5553   -0.2557 O   0  0  0  0  0  0  0  0  0  0  0  0
   -2.3185    3.5920   -2.3789 O   0  0  0  0  0  0  0  0  0  0  0  0
   -0.0250    3.4048   -1.3151 O   0  0  0  0  0  0  0  0  0  0  0  0
   -1.1655    1.2289   -2.2443 O   0  0  0  0  0  0  0  0  0  0  0  0
    2.7188    0.8795    0.6437 N   0  0  0  0  0  0  0  0  0  0  0  0
    4.7184    1.7973    0.2846 N   0  0  0  0  0  0  0  0  0  0  0  0
    3.0763   -1.3040   -0.3588 N   0  0  0  0  0  0  0  0  0  0  0  0
    5.3356   -1.5068   -1.2590 N   0  0  0  0  0  0  0  0  0  0  0  0
    6.9352    0.2684   -1.1273 N   0  0  0  0  0  0  0  0  0  0  0  0
    1.1988    0.1354    2.4914 C   0  0  0  0  0  0  0  0  0  0  0  0
    0.5796   -1.2262    2.2379 C   0  0  0  0  0  0  0  0  0  0  0  0
    1.3321    0.7530    1.0965 C   0  0  0  0  0  0  0  0  0  0  0  0
   -0.1885   -1.0046    0.9397 C   0  0  0  0  0  0  0  0  0  0  0  0
   -0.4467   -2.2444    0.1036 C   0  0  0  0  0  0  0  0  0  0  0  0
    3.4592   -0.0683   -0.0036 C   0  0  0  0  0  0  0  0  0  0  0  0
    3.5180    1.9819    0.7933 C   0  0  0  0  0  0  0  0  0  0  0  0
    4.6956    0.5201   -0.2167 C   0  0  0  0  0  0  0  0  0  0  0  0
    5.6534   -0.2482   -0.8708 C   0  0  0  0  0  0  0  0  0  0  0  0
    4.0853   -1.9499   -0.9829 C   0  0  0  0  0  0  0  0  0  0  0  0
  1  8  1  0
  1  9  1  0
  1 10  1  0
  1 11  2  0
  2  9  1  0
  2 12  1  0
  2 13  1  0
  2 14  2  0
  3 12  1  0
  3 15  1  0
  3 16  1  0
  3 17  2  0
  4 15  1  0
  4 18  1  0
  4 19  1  0
  4 20  2  0
  5 28  1  0
  5 29  1  0
  6 26  1  0
  7 27  1  0
  8 30  1  0
 21 28  1  0
 21 31  1  0
 21 32  1  0
 22 32  2  0
 22 33  1  0
 23 31  1  0
 23 35  2  0
 24 34  2  0
 24 35  1  0
 25 34  1  0
 26 27  1  0
 26 28  1  0
 27 29  1  0
 29 30  1  0
 31 33  2  0
 33 34  1  0
M  END
>  <PUBCHEM_COMPOUND_CID>  (1) 
508

>  <PUBCHEM_CONFORMER_RMSD>  (1) 
2

>  <PUBCHEM_CONFORMER_DIVERSEORDER>  (1) 
1
45
24
34
53
33
43
40
29
8
3
17
47
38
32
13
30
21
54
28
56
49
46
18
22
31
2
19
41
16
26
51
25
11
20
5
55
39
52
7
44
14
27
10
23
37
6
15
4
50
9
12
36
35
48
42

>  <PUBCHEM_MMFF94_PARTIAL_CHARGES>  (1) 
46
1 1.51
10 -0.77
11 -0.7
12 -0.54
13 -0.77
14 -0.7
15 -0.54
16 -0.77
17 -0.7
18 -0.77
19 -0.77
2 1.51
20 -0.7
21 0.05
22 -0.57
23 -0.57
24 -0.62
25 -0.9
26 0.28
27 0.28
28 0.54
29 0.28
3 1.51
30 0.28
31 0.11
32 0.04
33 0.23
34 0.41
35 0.47
4 1.51
42 0.4
43 0.4
44 0.15
45 0.15
46 0.4
47 0.4
48 0.5
49 0.5
5 -0.56
50 0.5
51 0.5
52 0.5
6 -0.68
7 -0.68
8 -0.55
9 -0.54

>  <PUBCHEM_EFFECTIVE_ROTOR_COUNT>  (1) 
11

>  <PUBCHEM_PHARMACOPHORE_FEATURES>  (1) 
23
1 10 acceptor
1 11 acceptor
1 13 acceptor
1 14 acceptor
1 16 acceptor
1 17 acceptor
1 18 acceptor
1 19 acceptor
1 20 acceptor
1 25 cation
1 25 donor
1 5 acceptor
1 6 acceptor
1 6 donor
1 7 acceptor
1 7 donor
3 21 22 32 cation
3 21 23 31 cation
3 23 24 35 cation
4 4 18 19 20 anion
5 21 22 31 32 33 rings
5 5 26 27 28 29 rings
6 23 24 31 33 34 35 rings

>  <PUBCHEM_HEAVY_ATOM_COUNT>  (1) 
35

>  <PUBCHEM_ATOM_DEF_STEREO_COUNT>  (1) 
0

>  <PUBCHEM_ATOM_UDEF_STEREO_COUNT>  (1) 
4

>  <PUBCHEM_BOND_DEF_STEREO_COUNT>  (1) 
0

>  <PUBCHEM_BOND_UDEF_STEREO_COUNT>  (1) 
0

>  <PUBCHEM_ISOTOPIC_ATOM_COUNT>  (1) 
0

>  <PUBCHEM_COMPONENT_COUNT>  (1) 
1

>  <PUBCHEM_CACTVS_TAUTO_COUNT>  (1) 
3

>  <PUBCHEM_CONFORMER_ID>  (1) 
000001FC00000001

>  <PUBCHEM_MMFF94_ENERGY>  (1) 
-22.7468

>  <PUBCHEM_FEATURE_SELFOVERLAP>  (1) 
117.414

>  <PUBCHEM_SHAPE_FINGERPRINT>  (1) 
10032420 55 16733255820516170241
10165383 225 18129670699359747329
10670039 82 17894632539533326708
11014199 57 17977947118031370727
11513181 2 17979642552007609676
11578080 2 17416954192565473376
11595378 159 18041266721226884290
12788726 201 17967249819375878740
131258 43 17481711174875353943
133893 2 15793672449777377282
13947930 73 12534484887197881231
14251751 93 18412543184828502115
14251757 17 18129667374775511214
14251757 5 18060422438629185587
14840074 17 18114182991472010565
14910302 57 17988070196812284362
14955137 171 18191879031513412787
15183329 4 18130794472894099546
15575132 122 17968653814125659861
17977149 70 18410573959682594112
20600515 1 16965711454718548171
23559900 14 17489871570584535946
238 59 17329116119956845693
244849 19 16987697134687712898
4098825 35 18261117332030627478
460360 51 17897985981109963426
469060 322 16732702748786316757
6287921 2 18124591139674591392

>  <PUBCHEM_SHAPE_MULTIPOLES>  (1) 
616.87
11.7
3.9
2.44
9.43
0.5
0.82
-0.5
-3.23
-3.94
-2.17
-0.89
0.23
0.26

>  <PUBCHEM_SHAPE_SELFOVERLAP>  (1) 
1242.139

>  <PUBCHEM_SHAPE_VOLUME>  (1) 
364

>  <PUBCHEM_COORDINATE_TYPE>  (1) 
2
5
10

$$$$
