5083
     RDKit          3D

 33 37  0  0  0  0  0  0  0  0999 V2000
   -4.8571   -0.2902   -0.0807 S   0  0  0  0  0  0  0  0  0  0  0  0
    2.9310   -2.3246    2.5882 O   0  0  0  0  0  0  0  0  0  0  0  0
    3.1644    2.2447    2.4406 O   0  0  0  0  0  0  0  0  0  0  0  0
   -0.9860   -2.8349    0.2326 N   0  0  0  0  0  0  0  0  0  0  0  0
   -0.6813    2.9813    0.0030 N   0  0  0  0  0  0  0  0  0  0  0  0
    3.3452   -0.0468    2.7728 N   0  0  0  0  0  0  0  0  0  0  0  0
   -5.6301    2.1402    0.5866 N   0  0  0  0  0  0  0  0  0  0  0  0
   -3.7746    1.2876    1.7736 N   0  0  0  0  0  0  0  0  0  0  0  0
    0.7894   -1.5704    0.6677 C   0  0  0  0  0  0  0  0  0  0  0  0
    1.6728   -0.6813    1.3561 C   0  0  0  0  0  0  0  0  0  0  0  0
    0.9695   -2.1715   -0.6117 C   0  0  0  0  0  0  0  0  0  0  0  0
   -0.1573   -2.9584   -0.8596 C   0  0  0  0  0  0  0  0  0  0  0  0
    1.7338    0.6626    1.3213 C   0  0  0  0  0  0  0  0  0  0  0  0
   -0.4237   -1.9992    1.1600 C   0  0  0  0  0  0  0  0  0  0  0  0
    0.9560    1.5897    0.5597 C   0  0  0  0  0  0  0  0  0  0  0  0
   -2.2688   -3.4850    0.3930 C   0  0  0  0  0  0  0  0  0  0  0  0
    1.2297    2.1016   -0.7396 C   0  0  0  0  0  0  0  0  0  0  0  0
    0.1872    2.9720   -1.0650 C   0  0  0  0  0  0  0  0  0  0  0  0
   -3.4170   -2.6360   -0.1545 C   0  0  0  0  0  0  0  0  0  0  0  0
    2.7143   -1.1595    2.3009 C   0  0  0  0  0  0  0  0  0  0  0  0
   -0.2252    2.1489    0.9898 C   0  0  0  0  0  0  0  0  0  0  0  0
    2.8215    1.0922    2.2369 C   0  0  0  0  0  0  0  0  0  0  0  0
    1.9878   -2.1195   -1.5842 C   0  0  0  0  0  0  0  0  0  0  0  0
   -0.3173   -3.6990   -2.0362 C   0  0  0  0  0  0  0  0  0  0  0  0
    2.2673    1.9072   -1.6729 C   0  0  0  0  0  0  0  0  0  0  0  0
    1.8415   -2.8552   -2.7658 C   0  0  0  0  0  0  0  0  0  0  0  0
    0.7059   -3.6321   -2.9864 C   0  0  0  0  0  0  0  0  0  0  0  0
   -3.4982   -1.2994    0.5762 C   0  0  0  0  0  0  0  0  0  0  0  0
    0.1304    3.6607   -2.2820 C   0  0  0  0  0  0  0  0  0  0  0  0
   -1.9021    3.7534    0.0878 C   0  0  0  0  0  0  0  0  0  0  0  0
    2.2237    2.5894   -2.8943 C   0  0  0  0  0  0  0  0  0  0  0  0
    1.1707    3.4522   -3.1920 C   0  0  0  0  0  0  0  0  0  0  0  0
   -4.7035    1.1790    0.8782 C   0  0  0  0  0  0  0  0  0  0  0  0
  1 28  1  0
  1 33  1  0
  2 20  2  0
  3 22  2  0
  4 12  1  0
  4 14  1  0
  4 16  1  0
  5 18  1  0
  5 21  1  0
  5 30  1  0
  6 20  1  0
  6 22  1  0
  7 33  1  0
  8 33  2  0
  9 10  1  0
  9 11  1  0
  9 14  2  0
 10 13  2  0
 10 20  1  0
 11 12  2  0
 11 23  1  0
 12 24  1  0
 13 15  1  0
 13 22  1  0
 15 17  1  0
 15 21  2  0
 16 19  1  0
 17 18  2  0
 17 25  1  0
 18 29  1  0
 19 28  1  0
 23 26  2  0
 24 27  2  0
 25 31  2  0
 26 27  1  0
 29 32  2  0
 31 32  1  0
M  END
>  <PUBCHEM_COMPOUND_CID>  (1) 
5083

>  <PUBCHEM_CONFORMER_RMSD>  (1) 
1

>  <PUBCHEM_CONFORMER_DIVERSEORDER>  (1) 
6
84
108
76
115
104
113
9
65
46
55
114
21
3
57
90
78
77
11
96
73
94
87
39
85
112
59
13
100
23
66
80
56
44
95
31
41
29
5
105
38
97
109
86
19
99
1
22
83
67
110
64
53
60
50
88
4
82
70
68
37
36
102
45
2
34
98
40
81
12
71
107
20
43
54
33
24
47
14
72
15
92
48
93
35
7
26
49
69
75
111
27
8
32
89
91
74
28
101
103
42
58
63
30
18
106
62
17
61
79
51
52
10
25
16

>  <PUBCHEM_MMFF94_PARTIAL_CHARGES>  (1) 
44
1 -0.37
10 0.06
12 -0.15
13 0.06
14 -0.3
15 -0.05
16 0.26
18 -0.15
2 -0.57
20 0.62
21 -0.3
22 0.62
23 -0.15
24 -0.15
25 -0.15
26 -0.15
27 -0.15
28 0.23
29 -0.15
3 -0.57
30 0.26
31 -0.15
32 -0.15
33 0.64
34 0.15
39 0.15
4 0.05
40 0.15
41 0.15
42 0.37
43 0.15
44 0.15
45 0.15
48 0.15
5 0.05
52 0.15
53 0.15
54 0.4
55 0.4
56 0.4
6 -0.49
7 -0.85
8 -0.85
9 -0.05

>  <PUBCHEM_EFFECTIVE_ROTOR_COUNT>  (1) 
7.2

>  <PUBCHEM_PHARMACOPHORE_FEATURES>  (1) 
13
1 2 acceptor
1 3 acceptor
1 4 cation
1 5 cation
1 6 donor
1 7 donor
1 8 donor
3 7 8 33 cation
5 4 9 11 12 14 rings
5 5 15 17 18 21 rings
5 6 10 13 20 22 rings
6 11 12 23 24 26 27 rings
6 17 18 25 29 31 32 rings

>  <PUBCHEM_HEAVY_ATOM_COUNT>  (1) 
33

>  <PUBCHEM_ATOM_DEF_STEREO_COUNT>  (1) 
0

>  <PUBCHEM_ATOM_UDEF_STEREO_COUNT>  (1) 
0

>  <PUBCHEM_BOND_DEF_STEREO_COUNT>  (1) 
0

>  <PUBCHEM_BOND_UDEF_STEREO_COUNT>  (1) 
0

>  <PUBCHEM_ISOTOPIC_ATOM_COUNT>  (1) 
0

>  <PUBCHEM_COMPONENT_COUNT>  (1) 
1

>  <PUBCHEM_CACTVS_TAUTO_COUNT>  (1) 
3

>  <PUBCHEM_CONFORMER_ID>  (1) 
000013DB00000006

>  <PUBCHEM_MMFF94_ENERGY>  (1) 
65.9338

>  <PUBCHEM_FEATURE_SELFOVERLAP>  (1) 
66.194

>  <PUBCHEM_SHAPE_FINGERPRINT>  (1) 
10764073 3 18126830626291747586
11513181 2 17845644966793414942
11578080 2 16047644538731036328
11763715 3 16974185464038775978
12156800 1 18336829680938510870
12160290 23 17544698640377676042
12422481 6 18269535179149971474
13642711 20 17172412867524132672
14279260 333 17033336961005355020
15210252 30 17901977174095935807
15276724 80 18262503811856237314
15297060 5 18058474112677693073
17492 54 17683287656846861294
17921350 177 17894904136048314533
20739085 24 17608060360107806368
20764821 26 18338813272913456583
21987440 362 18342181089229258836
238918 7 18055894525260297067
46939830 39 17168685463013366900
474144 1 17970907989034991417
513202 73 17535723236581685850
5252454 2 15440426151388878332

>  <PUBCHEM_SHAPE_MULTIPOLES>  (1) 
646.33
6.58
6.27
3.4
5.96
2.45
0.73
4.54
-0.69
3.28
2.2
-4.01
-1.98
-3.8

>  <PUBCHEM_SHAPE_SELFOVERLAP>  (1) 
1426.581

>  <PUBCHEM_SHAPE_VOLUME>  (1) 
354.5

>  <PUBCHEM_COORDINATE_TYPE>  (1) 
2
5
10

$$$$
