5086
     RDKit          3D

 18 19  0  0  0  0  0  0  0  0999 V2000
    1.1457   -2.9685   -0.3013 S   0  0  0  0  0  0  0  0  0  0  0  0
    3.9151    1.6486    1.7780 F   0  0  0  0  0  0  0  0  0  0  0  0
   -0.9426    1.0516    0.2276 O   0  0  0  0  0  0  0  0  0  0  0  0
   -2.8350   -0.2237    0.5577 N   0  0  0  0  0  0  0  0  0  0  0  0
   -1.3516   -2.5122    0.1861 N   0  0  0  0  0  0  0  0  0  0  0  0
   -5.2173    2.4822   -0.3775 N   0  0  0  0  0  0  0  0  0  0  0  0
    0.6447   -1.3361   -0.1408 C   0  0  0  0  0  0  0  0  0  0  0  0
   -0.7098   -1.2912    0.1153 C   0  0  0  0  0  0  0  0  0  0  0  0
    1.6165   -0.2792   -0.2802 C   0  0  0  0  0  0  0  0  0  0  0  0
   -3.7289    0.8971    0.7411 C   0  0  0  0  0  0  0  0  0  0  0  0
   -1.4612   -0.0804    0.3056 C   0  0  0  0  0  0  0  0  0  0  0  0
   -4.3279    1.3465   -0.5835 C   0  0  0  0  0  0  0  0  0  0  0  0
    2.3097    0.1830    0.8386 C   0  0  0  0  0  0  0  0  0  0  0  0
    1.8635    0.2800   -1.5339 C   0  0  0  0  0  0  0  0  0  0  0  0
    3.2499    1.2044    0.7037 C   0  0  0  0  0  0  0  0  0  0  0  0
    2.8038    1.3015   -1.6687 C   0  0  0  0  0  0  0  0  0  0  0  0
   -0.4716   -3.4673   -0.0180 C   0  0  0  0  0  0  0  0  0  0  0  0
    3.4969    1.7637   -0.5500 C   0  0  0  0  0  0  0  0  0  0  0  0
  1  7  1  0
  1 17  1  0
  2 15  1  0
  3 11  2  0
  4 10  1  0
  4 11  1  0
  5  8  1  0
  5 17  2  0
  6 12  1  0
  7  8  2  0
  7  9  1  0
  8 11  1  0
  9 13  2  0
  9 14  1  0
 10 12  1  0
 13 15  1  0
 14 16  2  0
 15 18  2  0
 16 18  1  0
M  END
>  <PUBCHEM_COMPOUND_CID>  (1) 
5086

>  <PUBCHEM_CONFORMER_RMSD>  (1) 
0.6

>  <PUBCHEM_CONFORMER_DIVERSEORDER>  (1) 
2
80
42
53
81
18
9
74
34
69
26
3
71
61
51
68
33
38
46
58
52
79
66
6
22
82
10
75
62
25
39
77
5
45
73
35
31
36
83
41
17
48
65
72
11
64
37
29
78
4
14
32
76
67
59
8
13
28
63
21
30
40
60
44
70
24
12
7
49
27
1
23
56
54
50
57
20
43
19
15
55
47
16

>  <PUBCHEM_MMFF94_PARTIAL_CHARGES>  (1) 
26
1 -0.08
10 0.3
11 0.72
12 0.27
13 -0.15
14 -0.15
15 0.19
16 -0.15
17 0.23
18 -0.15
2 -0.19
21 0.37
24 0.15
25 0.15
26 0.15
27 0.15
28 0.15
29 0.36
3 -0.57
30 0.36
4 -0.73
5 -0.57
6 -0.99
7 -0.01
8 0.14
9 0.05

>  <PUBCHEM_EFFECTIVE_ROTOR_COUNT>  (1) 
5

>  <PUBCHEM_PHARMACOPHORE_FEATURES>  (1) 
7
1 3 acceptor
1 4 donor
1 5 acceptor
1 6 cation
1 6 donor
5 1 5 7 8 17 rings
6 9 13 14 15 16 18 rings

>  <PUBCHEM_HEAVY_ATOM_COUNT>  (1) 
18

>  <PUBCHEM_ATOM_DEF_STEREO_COUNT>  (1) 
0

>  <PUBCHEM_ATOM_UDEF_STEREO_COUNT>  (1) 
0

>  <PUBCHEM_BOND_DEF_STEREO_COUNT>  (1) 
0

>  <PUBCHEM_BOND_UDEF_STEREO_COUNT>  (1) 
0

>  <PUBCHEM_ISOTOPIC_ATOM_COUNT>  (1) 
0

>  <PUBCHEM_COMPONENT_COUNT>  (1) 
1

>  <PUBCHEM_CACTVS_TAUTO_COUNT>  (1) 
2

>  <PUBCHEM_CONFORMER_ID>  (1) 
000013DE00000002

>  <PUBCHEM_MMFF94_ENERGY>  (1) 
25.4068

>  <PUBCHEM_FEATURE_SELFOVERLAP>  (1) 
35.521

>  <PUBCHEM_SHAPE_FINGERPRINT>  (1) 
10498660 4 18341620325651256129
11140007 195 13262672587251175021
11543360 7 15770057237583101961
11582403 64 17130113551724003432
11725454 13 17130964595230452368
12173636 292 18266180728071449183
12500047 106 18341056332278731582
12633257 1 16225761926057837089
12730499 353 18338246960132491577
12788726 201 17682687572353672963
13140716 1 18409731725086056851
13294875 104 18341057333043418078
13764800 53 18196389206049963242
13878862 14 17832144923296084457
13955234 65 18122347879025810043
13965767 371 18114730590832332052
14123255 52 18409453604462421253
14178000 22 18339634633310162811
14178342 30 18191581076599682562
14957384 54 18188208822586592452
15061688 2 18271796947556259336
16752209 62 18122348136112067022
16945 1 17836374018182234798
17134986 127 18336277781271180358
1741750 31 18340492265074780587
1798214 55 18410017632516119181
18186145 218 18200892707093435257
18222031 100 10809349957748684673
19784866 34 18342737386836988233
20510252 161 17983310509870789706
21304303 282 17770747346979418606
21452121 103 18266169535613425065
21524375 3 18343306941806525918
22149856 69 18264791891627969697
23557571 272 17841728596996545680
23559900 14 18044382625922685027
23598291 2 17605275292780261926
2748010 2 18266202623968185343
43658 37 18413105035697413897
474 4 18263086531079650949
495365 180 18338514115239798733
633830 44 17702964547261124881
7364860 26 18124880062087501063
7471813 234 17626370239313240081
77492 1 17461996871829330638
7808743 9 18192161609843557532
81228 2 17836943556241084794
84936 182 18200035010619562921
88987 49 18195253436708928062
94968 8 10663808681105050693

>  <PUBCHEM_SHAPE_MULTIPOLES>  (1) 
346.19
7.62
3.39
1.2
7.76
3.05
-0.06
-8.81
0.23
0.63
-0.27
-1.17
-0.61
0.56

>  <PUBCHEM_SHAPE_SELFOVERLAP>  (1) 
724.028

>  <PUBCHEM_SHAPE_VOLUME>  (1) 
198.6

>  <PUBCHEM_COORDINATE_TYPE>  (1) 
2
5
10

$$$$
