5087
     RDKit          2D

 20 21  0  0  1  0  0  0  0  0999 V2000
    0.0000    0.0000    0.0000 O   0  0  0  0  0  0  0  0  0  0  0  0
    0.0000    0.0000    0.0000 O   0  0  0  0  0  0  0  0  0  0  0  0
    0.0000    0.0000    0.0000 O   0  0  0  0  0  0  0  0  0  0  0  0
    0.0000    0.0000    0.0000 N   0  0  0  0  0  0  0  0  0  0  0  0
    0.0000    0.0000    0.0000 N   0  0  0  0  0  0  0  0  0  0  0  0
    0.0000    0.0000    0.0000 C   0  0  0  0  0  0  0  0  0  0  0  0
    0.0000    0.0000    0.0000 C   0  0  0  0  0  0  0  0  0  0  0  0
    0.0000    0.0000    0.0000 C   0  0  0  0  0  0  0  0  0  0  0  0
    0.0000    0.0000    0.0000 C   0  0  0  0  0  0  0  0  0  0  0  0
    0.0000    0.0000    0.0000 C   0  0  0  0  0  0  0  0  0  0  0  0
    0.0000    0.0000    0.0000 C   0  0  0  0  0  0  0  0  0  0  0  0
    0.0000    0.0000    0.0000 C   0  0  0  0  0  0  0  0  0  0  0  0
    0.0000    0.0000    0.0000 C   0  0  0  0  0  0  0  0  0  0  0  0
    0.0000    0.0000    0.0000 C   0  0  0  0  0  0  0  0  0  0  0  0
    0.0000    0.0000    0.0000 C   0  0  0  0  0  0  0  0  0  0  0  0
    0.0000    0.0000    0.0000 C   0  0  0  0  0  0  0  0  0  0  0  0
    0.0000    0.0000    0.0000 C   0  0  0  0  0  0  0  0  0  0  0  0
    0.0000    0.0000    0.0000 C   0  0  0  0  0  0  0  0  0  0  0  0
    0.0000    0.0000    0.0000 C   0  0  0  0  0  0  0  0  0  0  0  0
    0.0000    0.0000    0.0000 C   0  0  0  0  0  0  0  0  0  0  0  0
  1 13  1  0
  1 17  1  0
  2 10  2  0
  3 14  1  0
  3 20  1  0
  4  6  1  0
  4 10  1  0
  5  8  1  0
  5 10  1  0
  6  7  1  0
  6  8  1  0
  7  9  1  0
  9 11  2  0
  9 12  1  0
 11 13  1  0
 12 15  2  0
 13 14  2  0
 14 15  1  0
 16 17  1  0
 16 18  1  0
 18 19  1  0
M  END
>  <PUBCHEM_COMPOUND_CID>  (1) 
5087

>  <PUBCHEM_CONFORMER_RMSD>  (1) 
0.8

>  <PUBCHEM_CONFORMER_DIVERSEORDER>  (1) 
11
38
259
249
67
243
59
182
190
17
225
203
251
146
25
211
23
160
291
34
230
27
221
240
44
255
93
37
151
103
213
18
202
96
20
284
166
57
88
245
140
179
187
22
294
271
36
169
161
288
60
252
128
144
41
232
47
39
238
239
61
242
1
231
296
217
75
102
81
237
145
250
180
208
40
30
127
254
77
106
91
257
154
121
83
126
268
191
201
258
64
264
246
71
122
302
177
111
120
266
114
9
301
117
278
101
94
157
174
66
85
74
186
153
256
137
109
159
281
216
210
197
222
248
295
95
115
54
48
43
172
73
113
156
31
84
69
260
135
200
189
104
235
108
155
42
282
50
112
297
267
276
119
8
275
289
3
78
130
171
35
136
181
198
303
285
92
226
227
32
49
280
253
206
265
178
262
4
14
263
209
149
269
287
65
139
162
185
170
224
5
304
132
292
223
68
277
58
247
79
134
2
76
99
62
199
165
100
98
163
33
97
168
272
228
143
107
192
148
207
131
26
29
298
16
194
218
24
219
175
80
142
90
133
286
300
51
274
82
220
233
6
279
141
293
173
116
299
72
244
164
273
46
52
70
89
241
234
138
261
283
152
63
123
15
184
53
215
86
87
7
167
45
193
158
290
118
55
12
28
212
56
270
176
236
105
147
214
183
195
13
196
204
124
188
150
229
19
129
205
125
21
110
10

>  <PUBCHEM_MMFF94_PARTIAL_CHARGES>  (1) 
22
1 -0.36
10 0.69
11 -0.15
12 -0.15
13 0.08
14 0.08
15 -0.15
17 0.28
2 -0.57
20 0.28
26 0.37
27 0.37
28 0.15
29 0.15
3 -0.36
30 0.15
4 -0.73
5 -0.73
6 0.3
7 0.14
8 0.3
9 -0.14

>  <PUBCHEM_EFFECTIVE_ROTOR_COUNT>  (1) 
7.8

>  <PUBCHEM_PHARMACOPHORE_FEATURES>  (1) 
8
1 1 acceptor
1 19 hydrophobe
1 2 acceptor
1 3 acceptor
1 4 donor
1 5 donor
5 4 5 6 8 10 rings
6 9 11 12 13 14 15 rings

>  <PUBCHEM_HEAVY_ATOM_COUNT>  (1) 
20

>  <PUBCHEM_ATOM_DEF_STEREO_COUNT>  (1) 
0

>  <PUBCHEM_ATOM_UDEF_STEREO_COUNT>  (1) 
1

>  <PUBCHEM_BOND_DEF_STEREO_COUNT>  (1) 
0

>  <PUBCHEM_BOND_UDEF_STEREO_COUNT>  (1) 
0

>  <PUBCHEM_ISOTOPIC_ATOM_COUNT>  (1) 
0

>  <PUBCHEM_COMPONENT_COUNT>  (1) 
1

>  <PUBCHEM_CACTVS_TAUTO_COUNT>  (1) 
3

$$$$
