5088
     RDKit          3D

 32 33  0  0  1  0  0  0  0  0999 V2000
    2.6693   -5.9153   -0.8741 S   0  0  0  0  0  0  0  0  0  0  0  0
    2.5577    3.9609   -0.4193 O   0  0  0  0  0  0  0  0  0  0  0  0
    2.5114    1.9041   -1.4445 O   0  0  0  0  0  0  0  0  0  0  0  0
    2.5549    0.0481    1.6623 O   0  0  0  0  0  0  0  0  0  0  0  0
    2.3394   -2.2758   -1.5491 O   0  0  0  0  0  0  0  0  0  0  0  0
    4.2924    0.8339    0.3328 N   0  0  0  0  0  0  0  0  0  0  0  0
   -0.1780   -3.0457   -0.3391 N   0  0  0  0  0  0  0  0  0  0  0  0
    2.9711   -2.4752    0.6757 N   0  0  0  0  0  0  0  0  0  0  0  0
    5.2562    3.1285    0.3407 C   0  0  0  0  0  0  0  0  0  0  0  0
    3.9958    2.2413    0.4352 C   0  0  0  0  0  0  0  0  0  0  0  0
    6.2842    2.7478    1.4103 C   0  0  0  0  0  0  0  0  0  0  0  0
    5.9104    3.1053   -1.0449 C   0  0  0  0  0  0  0  0  0  0  0  0
    1.0746   -3.7739   -0.1234 C   0  0  0  0  0  0  0  0  0  0  0  0
    2.9433    2.6642   -0.5838 C   0  0  0  0  0  0  0  0  0  0  0  0
    3.5420   -0.1533    0.9593 C   0  0  0  0  0  0  0  0  0  0  0  0
   -0.4811   -2.1981    0.8023 C   0  0  0  0  0  0  0  0  0  0  0  0
    4.0545   -1.5385    0.6275 C   0  0  0  0  0  0  0  0  0  0  0  0
    2.1858   -2.7748   -0.4356 C   0  0  0  0  0  0  0  0  0  0  0  0
    1.1050   -4.9977   -1.0425 C   0  0  0  0  0  0  0  0  0  0  0  0
   -1.7658   -1.4368    0.6102 C   0  0  0  0  0  0  0  0  0  0  0  0
   -1.7470   -0.1773    0.0108 C   0  0  0  0  0  0  0  0  0  0  0  0
   -2.9746   -1.9908    1.0316 C   0  0  0  0  0  0  0  0  0  0  0  0
   -4.1459   -0.0257    0.2546 C   0  0  0  0  0  0  0  0  0  0  0  0
   -2.9372    0.5283   -0.1669 C   0  0  0  0  0  0  0  0  0  0  0  0
   -4.1646   -1.2854    0.8538 C   0  0  0  0  0  0  0  0  0  0  0  0
   -5.3803    0.7057    0.0704 C   0  0  0  0  0  0  0  0  0  0  0  0
    1.5711    4.4386   -1.3397 C   0  0  0  0  0  0  0  0  0  0  0  0
   -6.1181    0.5442   -1.1024 C   0  0  0  0  0  0  0  0  0  0  0  0
   -5.8331    1.5720    1.0655 C   0  0  0  0  0  0  0  0  0  0  0  0
   -7.3086    1.2491   -1.2802 C   0  0  0  0  0  0  0  0  0  0  0  0
   -7.0237    2.2769    0.8876 C   0  0  0  0  0  0  0  0  0  0  0  0
   -7.7613    2.1154   -0.2852 C   0  0  0  0  0  0  0  0  0  0  0  0
  1 19  1  0
  2 14  1  0
  2 27  1  0
  3 14  2  0
  4 15  2  0
  5 18  2  0
  6 10  1  0
  6 15  1  0
  7 13  1  0
  7 16  1  0
  8 17  1  0
  8 18  1  0
  9 10  1  0
  9 11  1  0
  9 12  1  0
 10 14  1  0
 13 18  1  0
 13 19  1  0
 15 17  1  0
 16 20  1  0
 20 21  2  0
 20 22  1  0
 21 24  1  0
 22 25  2  0
 23 24  2  0
 23 25  1  0
 23 26  1  0
 26 28  2  0
 26 29  1  0
 28 30  1  0
 29 31  2  0
 30 32  2  0
 31 32  1  0
M  END
>  <PUBCHEM_COMPOUND_CID>  (1) 
5088

>  <PUBCHEM_CONFORMER_RMSD>  (1) 
1.2

>  <PUBCHEM_CONFORMER_DIVERSEORDER>  (1) 
1
165
110
189
179
209
252
104
204
133
173
72
144
199
44
239
126
228
166
81
141
214
220
185
201
38
94
160
88
241
19
200
138
169
53
21
92
219
154
39
108
187
41
125
178
192
35
142
127
36
249
163
150
100
145
102
162
240
54
15
149
116
171
115
129
74
96
136
242
161
216
159
57
205
47
224
139
251
152
193
9
34
156
250
32
198
132
170
68
212
183
78
208
17
123
230
143
101
42
244
207
146
56
188
62
13
243
233
89
106
10
195
222
91
191
118
190
59
215
109
93
151
172
77
25
237
4
79
6
137
105
227
223
180
167
218
90
28
111
245
155
206
168
225
30
119
80
76
64
26
247
182
2
140
148
238
75
157
99
86
236
231
134
55
181
246
217
61
33
18
37
130
197
27
107
203
120
5
31
174
29
114
70
48
24
20
12
112
177
226
131
45
52
122
221
73
248
128
196
14
186
234
95
135
211
147
98
235
43
202
124
175
158
50
66
194
67
60
153
121
83
8
40
253
229
3
49
16
87
213
23
232
63
210
7
184
22
58
164
97
84
113
103
69
65
11
46
71
85
176
117
82
51
254

>  <PUBCHEM_MMFF94_PARTIAL_CHARGES>  (1) 
40
1 -0.41
10 0.36
13 0.33
14 0.66
15 0.57
16 0.41
17 0.36
18 0.57
19 0.23
2 -0.43
20 -0.14
21 -0.15
22 -0.15
24 -0.15
25 -0.15
27 0.28
28 -0.15
29 -0.15
3 -0.57
30 -0.15
31 -0.15
32 -0.15
4 -0.57
41 0.37
43 0.36
5 -0.57
50 0.37
51 0.15
52 0.15
53 0.15
54 0.15
55 0.18
59 0.15
6 -0.73
60 0.15
61 0.15
62 0.15
63 0.15
7 -0.9
8 -0.73

>  <PUBCHEM_EFFECTIVE_ROTOR_COUNT>  (1) 
14

>  <PUBCHEM_PHARMACOPHORE_FEATURES>  (1) 
10
1 3 acceptor
1 4 acceptor
1 5 acceptor
1 6 donor
1 7 cation
1 7 donor
1 8 donor
3 9 11 12 hydrophobe
6 20 21 22 23 24 25 rings
6 26 28 29 30 31 32 rings

>  <PUBCHEM_HEAVY_ATOM_COUNT>  (1) 
32

>  <PUBCHEM_ATOM_DEF_STEREO_COUNT>  (1) 
0

>  <PUBCHEM_ATOM_UDEF_STEREO_COUNT>  (1) 
2

>  <PUBCHEM_BOND_DEF_STEREO_COUNT>  (1) 
0

>  <PUBCHEM_BOND_UDEF_STEREO_COUNT>  (1) 
0

>  <PUBCHEM_ISOTOPIC_ATOM_COUNT>  (1) 
0

>  <PUBCHEM_COMPONENT_COUNT>  (1) 
1

>  <PUBCHEM_CACTVS_TAUTO_COUNT>  (1) 
4

>  <PUBCHEM_CONFORMER_ID>  (1) 
000013E000000001

>  <PUBCHEM_MMFF94_ENERGY>  (1) 
76.5792

>  <PUBCHEM_FEATURE_SELFOVERLAP>  (1) 
50.746

>  <PUBCHEM_SHAPE_FINGERPRINT>  (1) 
10439779 11 18195235853329616064
10673678 19 18413672422204573819
10675989 125 18340209587538856488
10811444 77 18335133190131174797
10864689 126 18341334508953557680
12925494 130 18335139843003634233
13944108 23 18339084761753924880
14117953 113 18411135819189017548
15082195 135 18411691072598539583
15400415 2 18267586999186103440
15419008 47 17606967183314335327
15448158 71 18194125346347730592
15803439 3 16845298301606325814
16988056 13 18267594511421079286
17899979 129 18411426098421339160
20715895 44 18410571773359546619
21033648 144 18187071889082398407
21298829 104 18410290341407017705
21859007 373 17241313657085664981
23522609 53 17417541194894726745
23559900 14 18265340516974427739
394071 54 18336832983573039545
397830 11 18114195142355828435
4066623 53 17979086981367737518
5109719 28 18334021579970500849
6201320 77 15287570580744531256

>  <PUBCHEM_SHAPE_MULTIPOLES>  (1) 
623.97
18.2
7.41
1.35
28.02
6.69
-0.09
-20.99
0.55
-12.85
-2.9
-0.3
-0.26
0.83

>  <PUBCHEM_SHAPE_SELFOVERLAP>  (1) 
1277.357

>  <PUBCHEM_SHAPE_VOLUME>  (1) 
362.7

>  <PUBCHEM_COORDINATE_TYPE>  (1) 
2
5
10

$$$$
