5094
     RDKit          3D

 14 14  0  0  0  0  0  0  0  0999 V2000
   -2.5099   -0.3966   -0.0001 O   0  0  0  0  0  0  0  0  0  0  0  0
    4.2194   -0.9432   -0.0027 O   0  0  0  0  0  0  0  0  0  0  0  0
    3.7121    1.1970   -0.0015 O   0  0  0  0  0  0  0  0  0  0  0  0
   -4.1304    1.2386   -0.0005 O   0  0  0  0  0  0  0  0  0  0  0  0
    0.9968    0.5911    0.0018 N   0  0  0  0  0  0  0  0  0  0  0  0
   -0.0125   -1.3872    0.0015 N   0  0  0  0  0  0  0  0  0  0  0  0
    3.3588   -0.0170   -0.0009 N   0  0  0  0  0  0  0  0  0  0  0  0
   -4.6764   -0.9950   -0.0025 N   0  0  0  0  0  0  0  0  0  0  0  0
   -0.1741   -0.0942    0.0022 C   0  0  0  0  0  0  0  0  0  0  0  0
    1.9974   -0.3395    0.0009 C   0  0  0  0  0  0  0  0  0  0  0  0
   -1.4937    0.6125    0.0015 C   0  0  0  0  0  0  0  0  0  0  0  0
    1.1587    2.0278    0.0000 C   0  0  0  0  0  0  0  0  0  0  0  0
    1.3499   -1.5526    0.0013 C   0  0  0  0  0  0  0  0  0  0  0  0
   -3.7960    0.0586   -0.0010 C   0  0  0  0  0  0  0  0  0  0  0  0
  1 11  1  0
  1 14  1  0
  2  7  1  0
  3  7  2  0
  4 14  2  0
  5  9  1  0
  5 10  1  0
  5 12  1  0
  6  9  2  0
  6 13  1  0
  7 10  1  0
  8 14  1  0
  9 11  1  0
 10 13  2  0
M  CHG  2   2  -1   7   1
M  END
>  <PUBCHEM_COMPOUND_CID>  (1) 
5094

>  <PUBCHEM_CONFORMER_RMSD>  (1) 
0.6

>  <PUBCHEM_CONFORMER_DIVERSEORDER>  (1) 
2
11
12
8
1
13
9
3
10
6
7
5
4

>  <PUBCHEM_MMFF94_PARTIAL_CHARGES>  (1) 
17
1 -0.43
10 -0.07
11 0.46
12 0.26
13 0.08
14 0.78
2 -0.52
20 0.15
21 0.37
22 0.37
3 -0.52
4 -0.57
5 0.05
6 -0.57
7 0.96
8 -0.8
9 0.01

>  <PUBCHEM_EFFECTIVE_ROTOR_COUNT>  (1) 
4

>  <PUBCHEM_PHARMACOPHORE_FEATURES>  (1) 
7
1 2 acceptor
1 2 anion
1 3 acceptor
1 4 acceptor
1 8 donor
3 5 6 9 cation
5 5 6 9 10 13 rings

>  <PUBCHEM_HEAVY_ATOM_COUNT>  (1) 
14

>  <PUBCHEM_ATOM_DEF_STEREO_COUNT>  (1) 
0

>  <PUBCHEM_ATOM_UDEF_STEREO_COUNT>  (1) 
0

>  <PUBCHEM_BOND_DEF_STEREO_COUNT>  (1) 
0

>  <PUBCHEM_BOND_UDEF_STEREO_COUNT>  (1) 
0

>  <PUBCHEM_ISOTOPIC_ATOM_COUNT>  (1) 
0

>  <PUBCHEM_COMPONENT_COUNT>  (1) 
1

>  <PUBCHEM_CACTVS_TAUTO_COUNT>  (1) 
2

>  <PUBCHEM_CONFORMER_ID>  (1) 
000013E600000002

>  <PUBCHEM_MMFF94_ENERGY>  (1) 
25.7974

>  <PUBCHEM_FEATURE_SELFOVERLAP>  (1) 
35.6

>  <PUBCHEM_SHAPE_FINGERPRINT>  (1) 
10219947 1 18410858754610729440
11062470 55 17894351059960721507
11401426 45 18342170059773458112
11471102 20 18410570690964438668
11806522 49 18410574015543360855
12032990 46 18339646646486677070
13380535 76 18409168826545453883
13690532 89 18411138030511631914
13922767 16 18413105073840735104
14251717 144 18410573998073302391
14252887 29 17988651765528159022
14325111 11 18410575097590217793
14993402 34 18412832395341817676
15196674 1 18410575084763572037
200 152 18201431502762512359
20606313 2 18410856572767602948
20645477 70 18269551637876359199
221490 88 18192437578692968811
23402539 116 18272925003763388526
23402655 69 18341326717686917813
4990 188 18131642166278156134
5104073 3 18410575080684682169

>  <PUBCHEM_SHAPE_MULTIPOLES>  (1) 
244.71
8.04
1.6
0.56
4.99
0.33
0
-0.29
0.01
-0.53
0
0.01
0
0

>  <PUBCHEM_SHAPE_SELFOVERLAP>  (1) 
506.779

>  <PUBCHEM_SHAPE_VOLUME>  (1) 
140.5

>  <PUBCHEM_COORDINATE_TYPE>  (1) 
2
5
10

$$$$
