5097
     RDKit          3D

 26 28  0  0  1  0  0  0  0  0999 V2000
    5.4705   -1.8798    1.3879 O   0  0  0  0  0  0  0  0  0  0  0  0
    1.7476    2.6930   -0.1591 N   0  0  0  0  0  0  0  0  0  0  0  0
    2.0590   -2.0430    0.0461 N   0  0  0  0  0  0  0  0  0  0  0  0
    2.1150    0.2939   -0.0586 N   0  0  0  0  0  0  0  0  0  0  0  0
   -0.4808    2.7410   -0.1119 N   0  0  0  0  0  0  0  0  0  0  0  0
    0.0018   -0.9228    0.0424 N   0  0  0  0  0  0  0  0  0  0  0  0
   -2.1199    0.1841    0.0377 N   0  0  0  0  0  0  0  0  0  0  0  0
    3.1069    3.1743   -0.2096 C   0  0  0  0  0  0  0  0  0  0  0  0
    3.5066   -2.1325    0.0147 C   0  0  0  0  0  0  0  0  0  0  0  0
    1.3426    1.3902   -0.0914 C   0  0  0  0  0  0  0  0  0  0  0  0
   -0.0419    1.4417   -0.0635 C   0  0  0  0  0  0  0  0  0  0  0  0
    3.9317   -3.5383   -0.4276 C   0  0  0  0  0  0  0  0  0  0  0  0
   -0.7152    0.2262    0.0057 C   0  0  0  0  0  0  0  0  0  0  0  0
    1.3683   -0.8468    0.0093 C   0  0  0  0  0  0  0  0  0  0  0  0
    0.6169    3.4661   -0.1683 C   0  0  0  0  0  0  0  0  0  0  0  0
    3.8882    2.8163    1.0560 C   0  0  0  0  0  0  0  0  0  0  0  0
    3.8333    2.7060   -1.4719 C   0  0  0  0  0  0  0  0  0  0  0  0
    4.0490   -1.8133    1.4080 C   0  0  0  0  0  0  0  0  0  0  0  0
    3.3935   -3.9101   -1.8035 C   0  0  0  0  0  0  0  0  0  0  0  0
   -2.8637   -1.0384    0.1088 C   0  0  0  0  0  0  0  0  0  0  0  0
   -4.3409   -0.7586    0.0911 C   0  0  0  0  0  0  0  0  0  0  0  0
   -5.0155   -0.5606    1.2889 C   0  0  0  0  0  0  0  0  0  0  0  0
   -5.0133   -0.7019   -1.1229 C   0  0  0  0  0  0  0  0  0  0  0  0
   -6.3861   -0.3015    1.2725 C   0  0  0  0  0  0  0  0  0  0  0  0
   -6.3837   -0.4427   -1.1393 C   0  0  0  0  0  0  0  0  0  0  0  0
   -7.0700   -0.2425    0.0584 C   0  0  0  0  0  0  0  0  0  0  0  0
  1 18  1  0
  2  8  1  0
  2 10  1  0
  2 15  1  0
  3  9  1  0
  3 14  1  0
  4 10  2  0
  4 14  1  0
  5 11  1  0
  5 15  2  0
  6 13  1  0
  6 14  2  0
  7 13  1  0
  7 20  1  0
  8 16  1  0
  8 17  1  0
  9 12  1  0
  9 18  1  0
 10 11  1  0
 11 13  2  0
 12 19  1  0
 20 21  1  0
 21 22  2  0
 21 23  1  0
 22 24  1  0
 23 25  2  0
 24 26  2  0
 25 26  1  0
M  END
>  <PUBCHEM_COMPOUND_CID>  (1) 
5097

>  <PUBCHEM_CONFORMER_RMSD>  (1) 
0.8

>  <PUBCHEM_CONFORMER_DIVERSEORDER>  (1) 
1
195
311
221
275
237
43
351
174
172
276
212
283
150
291
313
64
320
93
297
299
186
338
205
248
331
265
252
307
145
97
324
127
285
279
228
332
292
129
352
164
180
156
119
56
296
353
219
328
60
202
185
31
190
302
102
245
224
192
244
217
316
100
350
155
117
233
138
266
344
181
142
147
166
141
130
210
294
88
170
168
263
301
165
110
111
277
61
333
346
240
39
260
243
203
261
196
67
42
312
183
48
321
128
197
80
209
342
98
300
232
239
112
348
159
86
236
194
213
157
304
77
235
268
264
198
158
318
241
23
114
90
50
286
132
322
315
238
177
207
113
120
308
187
74
326
137
334
347
360
51
257
188
199
6
278
118
136
73
262
325
65
14
310
124
7
259
341
191
329
143
182
152
251
161
71
18
40
33
103
358
335
254
231
319
140
189
234
229
134
314
8
32
85
225
139
282
249
250
289
70
359
200
72
230
89
272
81
208
255
173
148
258
298
63
280
295
22
116
26
354
95
293
96
66
101
167
330
317
151
223
178
339
273
45
78
349
9
68
336
169
327
306
271
154
108
44
340
153
305
49
201
337
46
216
284
69
309
214
281
269
115
146
253
220
179
288
109
323
107
175
4
222
204
99
125
227
171
121
105
5
94
27
123
53
267
37
131
52
246
270
290
163
82
76
355
19
91
126
343
356
36
256
247
215
12
184
162
193
47
54
55
357
176
122
58
206
287
41
226
133
79
13
83
29
75
35
20
30
11
104
274
303
25
211
149
28
10
135
21
218
144
160
242
24
57
3
84
62
92
345
17
2
59
16
87
15
34
106
38

>  <PUBCHEM_MMFF94_PARTIAL_CHARGES>  (1) 
31
1 -0.68
10 0.11
11 0.23
13 0.41
14 0.72
15 0.04
18 0.28
2 0.05
20 0.51
21 -0.14
22 -0.15
23 -0.15
24 -0.15
25 -0.15
26 -0.15
3 -0.87
31 0.4
32 0.15
4 -0.57
41 0.4
47 0.4
48 0.15
49 0.15
5 -0.57
50 0.15
51 0.15
52 0.15
6 -0.62
7 -0.87
8 0.26
9 0.37

>  <PUBCHEM_EFFECTIVE_ROTOR_COUNT>  (1) 
8

>  <PUBCHEM_PHARMACOPHORE_FEATURES>  (1) 
12
1 1 acceptor
1 1 donor
1 19 hydrophobe
1 3 donor
1 7 cation
1 7 donor
3 2 5 15 cation
3 8 16 17 hydrophobe
4 3 4 6 14 cation
5 2 5 10 11 15 rings
6 21 22 23 24 25 26 rings
6 4 6 10 11 13 14 rings

>  <PUBCHEM_HEAVY_ATOM_COUNT>  (1) 
26

>  <PUBCHEM_ATOM_DEF_STEREO_COUNT>  (1) 
0

>  <PUBCHEM_ATOM_UDEF_STEREO_COUNT>  (1) 
1

>  <PUBCHEM_BOND_DEF_STEREO_COUNT>  (1) 
0

>  <PUBCHEM_BOND_UDEF_STEREO_COUNT>  (1) 
0

>  <PUBCHEM_ISOTOPIC_ATOM_COUNT>  (1) 
0

>  <PUBCHEM_COMPONENT_COUNT>  (1) 
1

>  <PUBCHEM_CACTVS_TAUTO_COUNT>  (1) 
6

>  <PUBCHEM_CONFORMER_ID>  (1) 
000013E900000001

>  <PUBCHEM_MMFF94_ENERGY>  (1) 
57.0875

>  <PUBCHEM_FEATURE_SELFOVERLAP>  (1) 
61.026

>  <PUBCHEM_SHAPE_FINGERPRINT>  (1) 
10411042 1 18266179422813204734
10693767 8 18202292419934805006
11135926 11 18338233894019401821
11265709 11 18337670815142848507
12107183 9 18127141767045116513
12236239 1 17775010145798201685
12730499 353 18190469440083797657
13073987 5 18340494460931723099
13140716 1 18266456516585923456
13533116 47 18413110580732236931
13782708 43 17676493869732659467
13785724 45 18127424353643188863
13955234 65 18411701023293225458
14739800 52 17346030186135905689
14790565 3 17614851037862189356
15042514 8 17689720757700181434
15081414 286 18187930625049834621
15250474 111 17987224703153390191
15420108 30 17983844855874788834
15475509 84 17988085482912719177
1577012 14 18059581317646651433
15927050 60 17979074113813717526
17980427 26 17556555953575559261
1813 80 18271251499610659959
18222031 100 18341896238407961063
1979834 28 18271795831529426970
20645477 70 18335134323970593391
21033648 29 17385997387388707631
2132832 1 18272374135774907297
21478907 32 18122344575547229251
22182313 1 17895737565798936637
23559900 14 18410571816483559131
24771293 8 18272640256259215730
25147074 1 18342189833998717641
314173 85 18339080376523873827
3411729 13 18188489202414870328
3421961 26 18410576179953638075
394071 54 18412825785113375802
4394409 98 14377075626599555407
5104073 3 18337117864812484723
5385378 56 18339367473348914033
59755656 215 18335986462261465484
70251023 43 18264777570872297282
8863177 126 17822869679363661923
9841814 1 18260261919767290778

>  <PUBCHEM_SHAPE_MULTIPOLES>  (1) 
499.31
14.7
4.64
1.25
26.95
0.36
0.04
-6.5
-1.42
-10.72
1.26
-0.32
-0.51
-0.11

>  <PUBCHEM_SHAPE_SELFOVERLAP>  (1) 
1053.684

>  <PUBCHEM_SHAPE_VOLUME>  (1) 
278.7

>  <PUBCHEM_COORDINATE_TYPE>  (1) 
2
5
10

$$$$
