5102
     RDKit          3D

 29 33  0  0  1  0  0  0  0  0999 V2000
   -1.2055    1.1828   -0.1559 O   0  0  0  0  0  0  0  0  0  0  0  0
    2.1791    2.4785    0.4328 O   0  0  0  0  0  0  0  0  0  0  0  0
   -5.3058   -0.9722    0.3950 O   0  0  0  0  0  0  0  0  0  0  0  0
    0.8973   -2.2826    0.4312 O   0  0  0  0  0  0  0  0  0  0  0  0
    5.4789   -1.7362   -0.9075 O   0  0  0  0  0  0  0  0  0  0  0  0
    6.5186    0.6489    0.0646 O   0  0  0  0  0  0  0  0  0  0  0  0
    0.8933   -0.0086   -0.4502 C   0  0  0  0  0  0  0  0  0  0  0  0
    0.1623    1.1336    0.2603 C   0  0  0  0  0  0  0  0  0  0  0  0
   -1.8546   -0.0006    0.0807 C   0  0  0  0  0  0  0  0  0  0  0  0
    2.3879    0.1518   -0.3081 C   0  0  0  0  0  0  0  0  0  0  0  0
    0.2785   -1.2734    0.1215 C   0  0  0  0  0  0  0  0  0  0  0  0
    0.8462    2.4464   -0.0815 C   0  0  0  0  0  0  0  0  0  0  0  0
   -3.2364    0.0153    0.1392 C   0  0  0  0  0  0  0  0  0  0  0  0
   -1.1990   -1.2308    0.2483 C   0  0  0  0  0  0  0  0  0  0  0  0
   -4.1869    1.1325   -0.0685 C   0  0  0  0  0  0  0  0  0  0  0  0
   -5.4713    0.4689    0.4534 C   0  0  0  0  0  0  0  0  0  0  0  0
   -3.9458   -1.1527    0.3762 C   0  0  0  0  0  0  0  0  0  0  0  0
    2.9335    1.3738    0.1212 C   0  0  0  0  0  0  0  0  0  0  0  0
   -1.9253   -2.4101    0.4915 C   0  0  0  0  0  0  0  0  0  0  0  0
    3.2703   -0.8739   -0.6803 C   0  0  0  0  0  0  0  0  0  0  0  0
   -3.3198   -2.3727    0.5534 C   0  0  0  0  0  0  0  0  0  0  0  0
   -6.6830    0.8529   -0.3280 C   0  0  0  0  0  0  0  0  0  0  0  0
    4.3162    1.5279    0.2639 C   0  0  0  0  0  0  0  0  0  0  0  0
    4.6516   -0.7135   -0.5525 C   0  0  0  0  0  0  0  0  0  0  0  0
    5.1737    0.4828   -0.0696 C   0  0  0  0  0  0  0  0  0  0  0  0
   -6.9823    0.0178   -1.5374 C   0  0  0  0  0  0  0  0  0  0  0  0
   -7.4603    1.8855    0.0309 C   0  0  0  0  0  0  0  0  0  0  0  0
    5.8184   -2.6774    0.1088 C   0  0  0  0  0  0  0  0  0  0  0  0
    6.9701    1.9054    0.5666 C   0  0  0  0  0  0  0  0  0  0  0  0
  1  8  1  0
  1  9  1  0
  2 12  1  0
  2 18  1  0
  3 16  1  0
  3 17  1  0
  4 11  2  0
  5 24  1  0
  5 28  1  0
  6 25  1  0
  6 29  1  0
  7  8  1  0
  7 10  1  0
  7 11  1  0
  8 12  1  0
  9 13  2  0
  9 14  1  0
 10 18  2  0
 10 20  1  0
 11 14  1  0
 13 15  1  0
 13 17  1  0
 14 19  2  0
 15 16  1  0
 16 22  1  0
 17 21  2  0
 18 23  1  0
 19 21  1  0
 20 24  2  0
 22 26  1  0
 22 27  2  0
 23 25  2  0
 24 25  1  0
M  END
>  <PUBCHEM_COMPOUND_CID>  (1) 
5102

>  <PUBCHEM_CONFORMER_RMSD>  (1) 
0.8

>  <PUBCHEM_CONFORMER_DIVERSEORDER>  (1) 
7
10
3
5
12
2
8
9
6
11
4
13
1

>  <PUBCHEM_MMFF94_PARTIAL_CHARGES>  (1) 
35
1 -0.36
10 -0.14
11 0.42
12 0.28
13 -0.14
14 0.09
15 0.14
16 0.42
17 0.08
18 0.08
19 -0.15
2 -0.36
20 -0.15
21 -0.15
22 -0.28
23 -0.15
24 0.08
25 0.08
26 0.14
27 -0.3
28 0.28
29 0.28
3 -0.36
37 0.15
38 0.15
39 0.15
4 -0.57
40 0.15
44 0.15
45 0.15
5 -0.36
6 -0.36
7 0.2
8 0.28
9 0.08

>  <PUBCHEM_EFFECTIVE_ROTOR_COUNT>  (1) 
4.2

>  <PUBCHEM_PHARMACOPHORE_FEATURES>  (1) 
11
1 1 acceptor
1 2 acceptor
1 3 acceptor
1 4 acceptor
1 5 acceptor
1 6 acceptor
5 3 13 15 16 17 rings
6 1 7 8 9 11 14 rings
6 10 18 20 23 24 25 rings
6 2 7 8 10 12 18 rings
6 9 13 14 17 19 21 rings

>  <PUBCHEM_HEAVY_ATOM_COUNT>  (1) 
29

>  <PUBCHEM_ATOM_DEF_STEREO_COUNT>  (1) 
0

>  <PUBCHEM_ATOM_UDEF_STEREO_COUNT>  (1) 
3

>  <PUBCHEM_BOND_DEF_STEREO_COUNT>  (1) 
0

>  <PUBCHEM_BOND_UDEF_STEREO_COUNT>  (1) 
0

>  <PUBCHEM_ISOTOPIC_ATOM_COUNT>  (1) 
0

>  <PUBCHEM_COMPONENT_COUNT>  (1) 
1

>  <PUBCHEM_CACTVS_TAUTO_COUNT>  (1) 
2

>  <PUBCHEM_CONFORMER_ID>  (1) 
000013EE00000007

>  <PUBCHEM_MMFF94_ENERGY>  (1) 
112.8722

>  <PUBCHEM_FEATURE_SELFOVERLAP>  (1) 
56.019

>  <PUBCHEM_SHAPE_FINGERPRINT>  (1) 
10554248 39 18261387870976046238
10835480 77 18340203093833634752
11089746 13 18201717362679539285
11315181 36 17775570875053071185
11578080 2 16700311239464238170
117089 54 17625555493304801462
11719270 70 17917428696600107862
11796584 16 17749391503000546122
12236239 1 17775284950389904373
12516196 113 18202284718810613424
12838862 33 18337372912048463136
13402501 40 18410013238553280036
13533116 47 18060419084686527586
14117953 113 18129948862854019342
14725015 67 18265613174831568650
14856354 85 14996290232272424515
15131766 46 15408888606504425514
15142383 8 17313376834084970996
15183329 4 18341055133407914538
15196674 1 18410578426163693370
15461852 350 17561082565911469725
15927050 60 18259984873440705859
16087824 20 18337393747230702381
1813 80 17385444345481817676
18608769 82 18335426816250783139
18681886 176 17917419965463785899
20028762 73 18060137583587111934
20511986 3 17774432901919345078
21033648 144 18260259717387681407
21033648 29 18129651032403760472
21130935 74 18342179963974064763
21279426 13 18337392647301511878
21298829 104 18413110533382796681
21792934 111 18341321198785869888
21859007 373 17968642848768360533
2215653 11 18342741818609897206
23559900 14 18340201985879499337
2838139 119 18413106139920883525
3004659 81 18259991449145489126
3103668 31 17971190331263683661
335352 9 18409732841761144927
350125 39 18407760322412432405
3680242 22 18334296431617193002
4073 2 18188494695825793626
4093350 32 17560804303269440422
5104073 3 18412272748007634450
5385378 56 18115308869919561651
59755656 215 18261391118266609911
59755656 520 18333726915107422015
6009941 240 17968097555245625146
6138700 20 18337394833498225335
6328613 192 18188496885732009589

>  <PUBCHEM_SHAPE_MULTIPOLES>  (1) 
561.59
18.74
2.71
0.82
5.97
0.61
-0.14
-4.54
-1.87
-1.68
0.41
0.41
0.08
1.09

>  <PUBCHEM_SHAPE_SELFOVERLAP>  (1) 
1254.419

>  <PUBCHEM_SHAPE_VOLUME>  (1) 
299.2

>  <PUBCHEM_COORDINATE_TYPE>  (1) 
2
5
10

$$$$
