5107
     RDKit          3D

 34 36  0  0  1  0  0  0  0  0999 V2000
   -1.9489   -0.4406   -1.7803 O   0  0  0  0  0  0  0  0  0  0  0  0
   -4.0180   -1.3038   -2.3213 O   0  0  0  0  0  0  0  0  0  0  0  0
    0.5242   -3.3944    1.4442 O   0  0  0  0  0  0  0  0  0  0  0  0
   -0.6086   -2.0590   -0.0759 N   0  0  0  0  0  0  0  0  0  0  0  0
   -7.5663    3.6096   -0.1932 N   0  0  0  0  0  0  0  0  0  0  0  0
   -5.5190    3.3978   -1.3000 N   0  0  0  0  0  0  0  0  0  0  0  0
    8.8937    1.5407    2.1809 N   0  0  0  0  0  0  0  0  0  0  0  0
   -3.0685   -1.6839   -0.1088 C   0  0  0  0  0  0  0  0  0  0  0  0
   -1.9026   -2.6802    0.0865 C   0  0  0  0  0  0  0  0  0  0  0  0
   -3.0092   -0.5196    0.9015 C   0  0  0  0  0  0  0  0  0  0  0  0
   -2.0203   -3.8972   -0.8296 C   0  0  0  0  0  0  0  0  0  0  0  0
   -4.3490    0.1500    1.1020 C   0  0  0  0  0  0  0  0  0  0  0  0
   -3.0972   -1.1358   -1.5319 C   0  0  0  0  0  0  0  0  0  0  0  0
   -4.7185    1.2264    0.2956 C   0  0  0  0  0  0  0  0  0  0  0  0
    0.5101   -2.4765    0.6282 C   0  0  0  0  0  0  0  0  0  0  0  0
   -5.2153   -0.3071    2.0952 C   0  0  0  0  0  0  0  0  0  0  0  0
    1.7604   -1.7175    0.3679 C   0  0  0  0  0  0  0  0  0  0  0  0
   -5.9542    1.8458    0.4824 C   0  0  0  0  0  0  0  0  0  0  0  0
   -6.4510    0.3125    2.2820 C   0  0  0  0  0  0  0  0  0  0  0  0
   -6.8205    1.3889    1.4756 C   0  0  0  0  0  0  0  0  0  0  0  0
    2.7472   -1.6418    1.3509 C   0  0  0  0  0  0  0  0  0  0  0  0
    1.9477   -1.0809   -0.8591 C   0  0  0  0  0  0  0  0  0  0  0  0
    4.1087   -0.2928   -0.1200 C   0  0  0  0  0  0  0  0  0  0  0  0
    3.9213   -0.9295    1.1069 C   0  0  0  0  0  0  0  0  0  0  0  0
    3.1218   -0.3686   -1.1030 C   0  0  0  0  0  0  0  0  0  0  0  0
    5.3277    0.4446   -0.3723 C   0  0  0  0  0  0  0  0  0  0  0  0
   -6.3393    2.9693   -0.3570 C   0  0  0  0  0  0  0  0  0  0  0  0
   -1.8448    0.1289   -3.0888 C   0  0  0  0  0  0  0  0  0  0  0  0
    6.0032    1.0582    0.6826 C   0  0  0  0  0  0  0  0  0  0  0  0
    7.1781    1.7693    0.4387 C   0  0  0  0  0  0  0  0  0  0  0  0
    5.8270    0.5423   -1.6712 C   0  0  0  0  0  0  0  0  0  0  0  0
    7.6773    1.8671   -0.8601 C   0  0  0  0  0  0  0  0  0  0  0  0
    7.0018    1.2534   -1.9150 C   0  0  0  0  0  0  0  0  0  0  0  0
    7.9012    2.4243    1.5665 C   0  0  0  0  0  0  0  0  0  0  0  0
  1 13  1  0
  1 28  1  0
  2 13  2  0
  3 15  2  0
  4  9  1  0
  4 15  1  0
  5 27  1  0
  6 27  2  0
  7 34  1  0
  8  9  1  0
  8 10  1  0
  8 13  1  0
  9 11  1  0
 10 12  1  0
 12 14  2  0
 12 16  1  0
 14 18  1  0
 15 17  1  0
 16 19  2  0
 17 21  2  0
 17 22  1  0
 18 20  2  0
 18 27  1  0
 19 20  1  0
 21 24  1  0
 22 25  2  0
 23 24  2  0
 23 25  1  0
 23 26  1  0
 26 29  2  0
 26 31  1  0
 29 30  1  0
 30 32  2  0
 30 34  1  0
 31 33  2  0
 32 33  1  0
M  END
>  <PUBCHEM_COMPOUND_CID>  (1) 
5107

>  <PUBCHEM_CONFORMER_RMSD>  (1) 
1.4

>  <PUBCHEM_CONFORMER_DIVERSEORDER>  (1) 
1
72
82
43
85
112
144
18
10
123
95
76
137
14
12
58
77
121
33
108
128
98
122
41
73
69
74
90
103
57
100
20
106
126
113
119
86
4
68
136
107
29
92
91
28
40
120
46
26
17
141
25
36
71
96
99
88
48
8
47
115
44
23
140
13
42
49
93
118
32
116
143
31
3
111
27
37
87
61
104
50
102
78
19
142
54
45
134
117
11
35
110
67
22
84
56
109
131
21
60
39
52
70
62
94
51
38
55
7
89
97
53
75
138
83
9
139
125
34
15
64
66
59
132
135
65
80
129
16
101
105
24
114
6
30
130
127
2
79
5
133
63
81
124

>  <PUBCHEM_MMFF94_PARTIAL_CHARGES>  (1) 
49
1 -0.43
10 0.14
12 -0.14
13 0.66
14 -0.15
15 0.54
16 -0.15
17 0.09
18 0.09
19 -0.15
2 -0.57
20 -0.15
21 -0.15
22 -0.15
24 -0.15
25 -0.15
27 0.41
28 0.28
29 -0.15
3 -0.57
30 -0.14
31 -0.15
32 -0.15
33 -0.15
34 0.41
4 -0.73
42 0.37
43 0.15
44 0.15
45 0.15
46 0.15
47 0.15
48 0.15
49 0.15
5 -0.85
50 0.15
54 0.15
55 0.15
56 0.15
57 0.15
6 -0.85
60 0.4
61 0.4
62 0.4
63 0.36
64 0.36
7 -0.99
8 0.06
9 0.3

>  <PUBCHEM_EFFECTIVE_ROTOR_COUNT>  (1) 
11

>  <PUBCHEM_PHARMACOPHORE_FEATURES>  (1) 
11
1 2 acceptor
1 3 acceptor
1 4 donor
1 5 donor
1 6 donor
1 7 cation
1 7 donor
3 5 6 27 cation
6 12 14 16 18 19 20 rings
6 17 21 22 23 24 25 rings
6 26 29 30 31 32 33 rings

>  <PUBCHEM_HEAVY_ATOM_COUNT>  (1) 
34

>  <PUBCHEM_ATOM_DEF_STEREO_COUNT>  (1) 
0

>  <PUBCHEM_ATOM_UDEF_STEREO_COUNT>  (1) 
2

>  <PUBCHEM_BOND_DEF_STEREO_COUNT>  (1) 
0

>  <PUBCHEM_BOND_UDEF_STEREO_COUNT>  (1) 
0

>  <PUBCHEM_ISOTOPIC_ATOM_COUNT>  (1) 
0

>  <PUBCHEM_COMPONENT_COUNT>  (1) 
1

>  <PUBCHEM_CACTVS_TAUTO_COUNT>  (1) 
2

>  <PUBCHEM_CONFORMER_ID>  (1) 
000013F300000001

>  <PUBCHEM_MMFF94_ENERGY>  (1) 
100.8501

>  <PUBCHEM_FEATURE_SELFOVERLAP>  (1) 
55.864

>  <PUBCHEM_SHAPE_FINGERPRINT>  (1) 
10280341 67 18341602725017916808
10533779 1 18338223886820169369
10554248 39 17488462979550206102
10930396 42 16153422832291616965
11135609 201 18334855026336703755
11273773 46 10231753363153365025
11475781 23 17989494048208178322
117089 54 9871455548324150253
12124843 1 13901913288885122216
12988421 55 17894622677967175170
1361 4 10662657492953216449
13690498 29 15338263713917873719
13782708 43 11025787722333242566
13911987 19 17916583121551968633
14150022 121 17968949728919914155
14395042 24 17460335437341956187
14765038 42 18259989288191169334
14931854 50 13901915500898067292
15131766 46 18337662053979302787
15188451 53 12252184103644624147
15274700 208 17988345062341541248
15338160 23 18335427919503886459
15510800 12 8070028878387620400
1577012 14 18413388752774076066
15803439 3 16630525120295651935
16067689 68 11747217910381196517
16994733 274 17774717671520892728
19841028 212 10087627204886736757
20691028 202 18335141985981220404
20775438 99 10084206564437007877
21223535 225 18272928349785998728
21424621 283 18410017654312787250
21756936 100 18341615953422196963
22223350 30 12325969065121146161
22899556 105 12823006475202422917
23389318 12 10592041372134639746
23522609 53 17096665386480094374
3918712 181 18342454786146849529
392239 28 15430044278994685283
406291 66 9223223036034745505
4403749 210 18334580132046462555
44249763 50 18201156654561760122
44880568 143 18057329586230936404
4756326 101 16371552698158493013
50009960 94 14997719679087754409
5104073 3 16660915587432856738
5718773 13 9223227429643110832
58260988 647 10591171666942555573
6036956 94 17981890744672148465
6289498 60 18409729604005501808
6712543 237 15285361700116879153
9689198 14 18340782480383778462

>  <PUBCHEM_SHAPE_MULTIPOLES>  (1) 
662.17
25.13
3.88
2.31
24.1
0.26
0.66
-30.16
-6.83
-4.74
0.1
-0.36
-0.21
0.53

>  <PUBCHEM_SHAPE_SELFOVERLAP>  (1) 
1415.591

>  <PUBCHEM_SHAPE_VOLUME>  (1) 
366.9

>  <PUBCHEM_COORDINATE_TYPE>  (1) 
2
5
10

$$$$
