5117
     RDKit          3D

 18 20  0  0  1  0  0  0  0  0999 V2000
    0.0023    2.0101    0.4925 O   0  0  0  0  0  0  0  0  0  0  0  0
    0.2336   -1.6296    1.0533 O   0  0  0  0  0  0  0  0  0  0  0  0
    4.8713    0.5326   -1.0172 O   0  0  0  0  0  0  0  0  0  0  0  0
   -2.4293    0.7490   -0.2312 N   0  0  0  0  0  0  0  0  0  0  0  0
   -1.1812   -0.0285   -0.1677 C   0  0  0  0  0  0  0  0  0  0  0  0
    0.0180    0.9056   -0.4195 C   0  0  0  0  0  0  0  0  0  0  0  0
   -2.4114    1.9112    0.6604 C   0  0  0  0  0  0  0  0  0  0  0  0
   -0.9271   -0.7917    1.1426 C   0  0  0  0  0  0  0  0  0  0  0  0
    1.3121    0.1691   -0.1984 C   0  0  0  0  0  0  0  0  0  0  0  0
   -3.6288   -0.0565   -0.0333 C   0  0  0  0  0  0  0  0  0  0  0  0
   -1.1935    2.7745    0.3560 C   0  0  0  0  0  0  0  0  0  0  0  0
    1.3460   -1.0318    0.5217 C   0  0  0  0  0  0  0  0  0  0  0  0
   -3.6377   -1.2396   -0.9980 C   0  0  0  0  0  0  0  0  0  0  0  0
    2.5101    0.6918   -0.7068 C   0  0  0  0  0  0  0  0  0  0  0  0
    2.5534   -1.7122    0.7016 C   0  0  0  0  0  0  0  0  0  0  0  0
    3.7160    0.0169   -0.5154 C   0  0  0  0  0  0  0  0  0  0  0  0
   -4.8906   -2.0846   -0.8266 C   0  0  0  0  0  0  0  0  0  0  0  0
    3.7369   -1.1862    0.1858 C   0  0  0  0  0  0  0  0  0  0  0  0
  1  6  1  0
  1 11  1  0
  2  8  1  0
  2 12  1  0
  3 16  1  0
  4  5  1  0
  4  7  1  0
  4 10  1  0
  5  6  1  0
  5  8  1  0
  6  9  1  0
  7 11  1  0
  9 12  2  0
  9 14  1  0
 10 13  1  0
 12 15  1  0
 13 17  1  0
 14 16  2  0
 15 18  2  0
 16 18  1  0
M  END
>  <PUBCHEM_COMPOUND_CID>  (1) 
5117

>  <PUBCHEM_CONFORMER_RMSD>  (1) 
0.6

>  <PUBCHEM_CONFORMER_DIVERSEORDER>  (1) 
1
3
12
9
10
7
8
4
2
13
5
6
11

>  <PUBCHEM_MMFF94_PARTIAL_CHARGES>  (1) 
20
1 -0.56
10 0.27
11 0.28
12 0.08
14 -0.15
15 -0.15
16 0.08
18 -0.15
2 -0.36
3 -0.53
31 0.15
32 0.15
36 0.15
37 0.45
4 -0.81
5 0.27
6 0.42
7 0.27
8 0.28
9 -0.14

>  <PUBCHEM_EFFECTIVE_ROTOR_COUNT>  (1) 
3.2

>  <PUBCHEM_PHARMACOPHORE_FEATURES>  (1) 
8
1 1 acceptor
1 17 hydrophobe
1 2 acceptor
1 3 donor
1 4 cation
6 1 4 5 6 7 11 rings
6 2 5 6 8 9 12 rings
6 9 12 14 15 16 18 rings

>  <PUBCHEM_HEAVY_ATOM_COUNT>  (1) 
18

>  <PUBCHEM_ATOM_DEF_STEREO_COUNT>  (1) 
0

>  <PUBCHEM_ATOM_UDEF_STEREO_COUNT>  (1) 
2

>  <PUBCHEM_BOND_DEF_STEREO_COUNT>  (1) 
0

>  <PUBCHEM_BOND_UDEF_STEREO_COUNT>  (1) 
0

>  <PUBCHEM_ISOTOPIC_ATOM_COUNT>  (1) 
0

>  <PUBCHEM_COMPONENT_COUNT>  (1) 
1

>  <PUBCHEM_CACTVS_TAUTO_COUNT>  (1) 
3

>  <PUBCHEM_CONFORMER_ID>  (1) 
000013FD00000001

>  <PUBCHEM_MMFF94_ENERGY>  (1) 
43.6034

>  <PUBCHEM_FEATURE_SELFOVERLAP>  (1) 
40.691

>  <PUBCHEM_SHAPE_FINGERPRINT>  (1) 
10062212 137 18262512568455536683
10616163 171 18270399373915046415
11578080 2 18045469020330559844
11725454 13 14490741433581204279
11806522 49 18409444821138035469
12553582 1 18200017560542232543
14576447 43 18338791325098226591
14787075 74 18337953514496689092
15375462 189 18409169913678036427
15442244 35 17974007245988841890
16945 1 18187938286827878520
17349148 13 18040709247657666682
17492 89 18339642213806907094
17844478 74 14692569892599256626
17862501 102 18261947441275592578
18186145 218 18042411222900816878
18222031 100 17845922044287896135
19422 9 18339079272558685270
200 152 18334856130058785615
20300324 65 18341899575787038356
20871999 31 18410001140353093975
21267235 1 18336274452560983186
21501502 16 18263928731042501050
21634736 98 18339639074269216029
221490 88 18048033270920557035
23402539 116 18411416206795099990
23402655 69 18260825952052048237
23557571 272 17774720844578623017
23559900 14 18056190264266405090
23566358 27 18049732823180101974
2748010 2 17686068596388878544
3286 77 18341036450859274754
465052 167 18057888133653352567
5104073 3 18262803956485941872
57096353 35 18333740112924276566
603831 33 18335698325658193870
7970288 3 18201147862717285607
9709674 26 18336839589153982934

>  <PUBCHEM_SHAPE_MULTIPOLES>  (1) 
347.84
8.01
2.37
1.02
0.07
0.91
-0.03
-3.74
2.86
1.74
-0.36
-0.02
-0.2
-1.36

>  <PUBCHEM_SHAPE_SELFOVERLAP>  (1) 
740.925

>  <PUBCHEM_SHAPE_VOLUME>  (1) 
192.7

>  <PUBCHEM_COORDINATE_TYPE>  (1) 
2
5
10

$$$$
