5156
     RDKit          3D

 18 20  0  0  1  0  0  0  0  0999 V2000
   -1.3978    1.0212   -0.8770 O   0  0  0  0  0  0  0  0  0  0  0  0
   -3.6134    1.1154   -1.4698 O   0  0  0  0  0  0  0  0  0  0  0  0
    4.1860    1.2237    0.2096 O   0  0  0  0  0  0  0  0  0  0  0  0
   -1.5939   -0.2124    1.0982 C   0  0  0  0  0  0  0  0  0  0  0  0
   -0.6835    0.7490    0.3379 C   0  0  0  0  0  0  0  0  0  0  0  0
    0.8608   -1.2080   -0.3592 C   0  0  0  0  0  0  0  0  0  0  0  0
   -1.4423   -1.6730    0.6559 C   0  0  0  0  0  0  0  0  0  0  0  0
    0.7297    0.2602    0.0611 C   0  0  0  0  0  0  0  0  0  0  0  0
    0.0230   -2.0916    0.5926 C   0  0  0  0  0  0  0  0  0  0  0  0
   -2.9606    0.3945    0.7709 C   0  0  0  0  0  0  0  0  0  0  0  0
   -2.7434    0.8718   -0.6485 C   0  0  0  0  0  0  0  0  0  0  0  0
    0.4143   -1.3873   -1.8266 C   0  0  0  0  0  0  0  0  0  0  0  0
    2.2866   -1.7099   -0.2968 C   0  0  0  0  0  0  0  0  0  0  0  0
    1.8034    1.0653    0.2429 C   0  0  0  0  0  0  0  0  0  0  0  0
   -4.1571   -0.5288    0.9133 C   0  0  0  0  0  0  0  0  0  0  0  0
    3.3524   -0.9367   -0.0901 C   0  0  0  0  0  0  0  0  0  0  0  0
    3.1894    0.5122    0.1151 C   0  0  0  0  0  0  0  0  0  0  0  0
    1.7463    2.5342    0.5706 C   0  0  0  0  0  0  0  0  0  0  0  0
  1  5  1  0
  1 11  1  0
  2 11  2  0
  3 17  2  0
  4  5  1  0
  4  7  1  0
  4 10  1  0
  5  8  1  0
  6  8  1  0
  6  9  1  0
  6 12  1  0
  6 13  1  0
  7  9  1  0
  8 14  2  0
 10 11  1  0
 10 15  1  0
 13 16  2  0
 14 17  1  0
 14 18  1  0
 16 17  1  0
M  END
>  <PUBCHEM_COMPOUND_CID>  (1) 
5156

>  <PUBCHEM_CONFORMER_RMSD>  (1) 
0.6

>  <PUBCHEM_CONFORMER_DIVERSEORDER>  (1) 
1
10
2
8
7
9
3
5
4
11
6

>  <PUBCHEM_MMFF94_PARTIAL_CHARGES>  (1) 
15
1 -0.43
10 0.06
11 0.66
13 -0.29
14 -0.12
16 -0.14
17 0.54
18 0.14
2 -0.57
29 0.15
3 -0.57
33 0.15
5 0.42
6 0.28
8 -0.28

>  <PUBCHEM_EFFECTIVE_ROTOR_COUNT>  (1) 
0.8

>  <PUBCHEM_PHARMACOPHORE_FEATURES>  (1) 
5
1 2 acceptor
1 3 acceptor
5 1 4 5 10 11 rings
6 4 5 6 7 8 9 rings
6 6 8 13 14 16 17 rings

>  <PUBCHEM_HEAVY_ATOM_COUNT>  (1) 
18

>  <PUBCHEM_ATOM_DEF_STEREO_COUNT>  (1) 
0

>  <PUBCHEM_ATOM_UDEF_STEREO_COUNT>  (1) 
4

>  <PUBCHEM_BOND_DEF_STEREO_COUNT>  (1) 
0

>  <PUBCHEM_BOND_UDEF_STEREO_COUNT>  (1) 
0

>  <PUBCHEM_ISOTOPIC_ATOM_COUNT>  (1) 
0

>  <PUBCHEM_COMPONENT_COUNT>  (1) 
1

>  <PUBCHEM_CACTVS_TAUTO_COUNT>  (1) 
2

>  <PUBCHEM_CONFORMER_ID>  (1) 
0000142400000001

>  <PUBCHEM_MMFF94_ENERGY>  (1) 
38.7729

>  <PUBCHEM_FEATURE_SELFOVERLAP>  (1) 
25.585

>  <PUBCHEM_SHAPE_FINGERPRINT>  (1) 
10608611 8 18335138682861401345
10646746 165 17895192160396242951
10863032 1 18040993977818615419
10967382 1 18411986870820910800
11471102 20 18341613693910092489
12011746 2 18408893944538195366
12077114 3 17968088733303625377
12236239 1 16917069949485287017
12251169 10 18338806722376108584
12403259 226 18334857186372619137
12403259 415 18260554394017764685
12423570 1 12575542102624561054
12654215 9 18263075518440502276
12730499 353 18042963174007703429
13134695 92 18269826519940685012
13140716 1 18125718139583497296
13380535 76 18340210781629636546
13464514 151 17830725466035940277
13581323 91 17530971297280637331
13897977 150 18340769329151642312
15219456 202 18335139773888329745
15309172 13 18202283610714039926
15775835 57 18272373109024040932
16945 1 18341895156123259530
1813 80 16196523554339246006
18186145 218 18338805506868747443
18219364 16 18408890637223603425
19049666 15 18116434739107232345
200 152 18059850680219416837
20645477 70 18200021829512332397
21501502 16 18268151035765574930
21524375 3 18269275823296831042
21639500 275 18272926145976938128
2334 1 17836925968703136712
23402539 116 17895468237179557955
23557571 272 17676489454310514877
23559900 14 17969504810403259242
238 59 18196345135606927469
25 1 18338233769401721472
2748010 2 18338245958677345042
3286 77 18410300185597868015
350125 39 17907864251361559440
633830 44 18201166442254203045
69090 78 18411138069361717979
77492 1 16917065525473669753
81228 2 17404283591801080642

>  <PUBCHEM_SHAPE_MULTIPOLES>  (1) 
352.82
6.22
2.16
1.18
1.1
0.07
0.41
1.45
-0.37
-1.1
-0.07
0.79
-0.15
0.91

>  <PUBCHEM_SHAPE_SELFOVERLAP>  (1) 
763.429

>  <PUBCHEM_SHAPE_VOLUME>  (1) 
192.5

>  <PUBCHEM_COORDINATE_TYPE>  (1) 
2
5
10

$$$$
