5164
     RDKit          3D

 25 28  0  0  0  0  0  0  0  0999 V2000
   -6.2528    0.3376    0.0509 F   0  0  0  0  0  0  0  0  0  0  0  0
    1.3720    1.1371   -0.0848 N   0  0  0  0  0  0  0  0  0  0  0  0
    5.6498    0.8836   -0.0352 N   0  0  0  0  0  0  0  0  0  0  0  0
   -0.2628    2.6127   -0.3522 N   0  0  0  0  0  0  0  0  0  0  0  0
    0.1396   -1.7559   -0.8119 N   0  0  0  0  0  0  0  0  0  0  0  0
    0.0609   -3.6918    0.6210 N   0  0  0  0  0  0  0  0  0  0  0  0
    0.0700   -3.9211   -1.7140 N   0  0  0  0  0  0  0  0  0  0  0  0
    2.7401    0.6175    0.0099 C   0  0  0  0  0  0  0  0  0  0  0  0
    3.5247    1.2223    1.1848 C   0  0  0  0  0  0  0  0  0  0  0  0
    3.5269    0.7756   -1.3008 C   0  0  0  0  0  0  0  0  0  0  0  0
    4.9492    0.6701    1.2318 C   0  0  0  0  0  0  0  0  0  0  0  0
    4.9514    0.2421   -1.1499 C   0  0  0  0  0  0  0  0  0  0  0  0
    0.2105    0.4313    0.0406 C   0  0  0  0  0  0  0  0  0  0  0  0
    1.0400    2.4409   -0.3194 C   0  0  0  0  0  0  0  0  0  0  0  0
   -0.7859    1.3639   -0.1280 C   0  0  0  0  0  0  0  0  0  0  0  0
    0.1578   -0.9898    0.2954 C   0  0  0  0  0  0  0  0  0  0  0  0
   -2.1926    1.0993   -0.0820 C   0  0  0  0  0  0  0  0  0  0  0  0
    0.1304   -1.4852    1.5798 C   0  0  0  0  0  0  0  0  0  0  0  0
   -2.8824    1.1834    1.1296 C   0  0  0  0  0  0  0  0  0  0  0  0
   -2.8802    0.7571   -1.2485 C   0  0  0  0  0  0  0  0  0  0  0  0
    0.0818   -2.8603    1.6834 C   0  0  0  0  0  0  0  0  0  0  0  0
    0.0913   -3.0815   -0.5790 C   0  0  0  0  0  0  0  0  0  0  0  0
   -4.2527    0.9262    1.1744 C   0  0  0  0  0  0  0  0  0  0  0  0
   -4.2504    0.5003   -1.2037 C   0  0  0  0  0  0  0  0  0  0  0  0
   -4.9367    0.5846    0.0077 C   0  0  0  0  0  0  0  0  0  0  0  0
  1 25  1  0
  2  8  1  0
  2 13  1  0
  2 14  1  0
  3 11  1  0
  3 12  1  0
  4 14  2  0
  4 15  1  0
  5 16  2  0
  5 22  1  0
  6 21  1  0
  6 22  2  0
  7 22  1  0
  8  9  1  0
  8 10  1  0
  9 11  1  0
 10 12  1  0
 13 15  2  0
 13 16  1  0
 15 17  1  0
 16 18  1  0
 17 19  2  0
 17 20  1  0
 18 21  2  0
 19 23  1  0
 20 24  2  0
 23 25  2  0
 24 25  1  0
M  END
>  <PUBCHEM_COMPOUND_CID>  (1) 
5164

>  <PUBCHEM_CONFORMER_RMSD>  (1) 
0.8

>  <PUBCHEM_CONFORMER_DIVERSEORDER>  (1) 
2
14
10
3
9
4
13
11
12
6
8
7
5
1

>  <PUBCHEM_MMFF94_PARTIAL_CHARGES>  (1) 
33
1 -0.19
11 0.27
12 0.27
13 -0.2
14 0.04
15 0.17
16 0.36
17 0.05
18 -0.15
19 -0.15
2 0.05
20 -0.15
21 0.16
22 0.72
23 -0.15
24 -0.15
25 0.19
3 -0.9
35 0.36
36 0.15
37 0.15
38 0.15
39 0.15
4 -0.57
40 0.15
41 0.15
42 0.15
43 0.4
44 0.4
5 -0.62
6 -0.62
7 -0.9
8 0.26

>  <PUBCHEM_EFFECTIVE_ROTOR_COUNT>  (1) 
4.2

>  <PUBCHEM_PHARMACOPHORE_FEATURES>  (1) 
10
1 3 cation
1 3 donor
1 5 acceptor
1 7 donor
3 2 4 14 cation
4 5 6 7 22 cation
5 2 4 13 14 15 rings
6 17 19 20 23 24 25 rings
6 3 8 9 10 11 12 rings
6 5 6 16 18 21 22 rings

>  <PUBCHEM_HEAVY_ATOM_COUNT>  (1) 
25

>  <PUBCHEM_ATOM_DEF_STEREO_COUNT>  (1) 
0

>  <PUBCHEM_ATOM_UDEF_STEREO_COUNT>  (1) 
0

>  <PUBCHEM_BOND_DEF_STEREO_COUNT>  (1) 
0

>  <PUBCHEM_BOND_UDEF_STEREO_COUNT>  (1) 
0

>  <PUBCHEM_ISOTOPIC_ATOM_COUNT>  (1) 
0

>  <PUBCHEM_COMPONENT_COUNT>  (1) 
1

>  <PUBCHEM_CACTVS_TAUTO_COUNT>  (1) 
3

>  <PUBCHEM_CONFORMER_ID>  (1) 
0000142C00000002

>  <PUBCHEM_MMFF94_ENERGY>  (1) 
54.3256

>  <PUBCHEM_FEATURE_SELFOVERLAP>  (1) 
50.747

>  <PUBCHEM_SHAPE_FINGERPRINT>  (1) 
10764073 3 14709426419460381378
10906281 52 17896053065644183289
1100329 8 18265611159610627081
11421498 54 17845943935720256489
11488393 25 18122908629201971506
116883 192 17837486723690899694
12035758 1 18337966691308413920
12236239 1 17846500331501264421
12592029 89 18114177514808024177
12788726 201 17762332917788846214
13052359 8 18188775070784656107
13083527 12 17899398806058933235
13140716 1 18264207088010644137
133893 2 17827088303013912840
13583140 156 16371019545644288808
13692114 37 18270401728227206467
13911987 19 18186528721374270589
13965767 371 16982694172546976145
14790565 3 18336273383257272476
14863182 85 18335715905307431367
15209289 33 18272653458677615785
15849732 13 17530683213077297620
16752209 62 18116990185985260122
17980427 23 14634874128550478639
20028762 73 18199190762194968871
20197701 30 18410849975481344299
20567600 347 18336833000209842919
20602899 9 17988933283670917906
20642791 13 17764850774026055096
20771845 140 17988633061304599263
20771845 171 17530973449101801502
21054139 6 18270388504038187439
21344244 181 18059307503742299262
21421861 104 17902519190257709913
21781051 124 18042144148596561162
22182313 1 18196681607418661046
22224240 67 18410571808220483745
229495 10 15720207562201779066
22956985 138 17753323171592574058
23559900 14 17612573545695765267
23569943 247 17843137904505405550
23598288 3 17973739257330779566
249057 3 18260838124976224756
283562 15 18339366249452565880
3178227 256 18334304192734152337
3383291 50 18266177237192348770
38695281 34 18343299241388860103
404807 14 15262043111433305540
465052 167 17603313664899075617
474229 33 18333452044977730337
58260988 647 17059516036166312902
59025328 239 16332989882059839470
59755656 215 18342459197251861285
6138700 20 18337395916452294454
6669772 16 18409168779912970734
81228 2 17758668236790144329

>  <PUBCHEM_SHAPE_MULTIPOLES>  (1) 
477.33
9.91
3.51
1.48
0.68
4.85
0.07
-6
-0.11
-0.33
-0.34
-0.23
0.64
0.01

>  <PUBCHEM_SHAPE_SELFOVERLAP>  (1) 
1046.337

>  <PUBCHEM_SHAPE_VOLUME>  (1) 
259

>  <PUBCHEM_COORDINATE_TYPE>  (1) 
2
5
10

$$$$
