5175
     RDKit          3D

 22 23  0  0  0  0  0  0  0  0999 V2000
    5.9868    0.9757   -1.4009 Cl  0  0  0  0  0  0  0  0  0  0  0  0
    0.0454   -0.9580    1.3334 S   0  0  0  0  0  0  0  0  0  0  0  0
   -0.5857   -2.2606    1.2393 O   0  0  0  0  0  0  0  0  0  0  0  0
    0.3860   -0.4041    2.6299 O   0  0  0  0  0  0  0  0  0  0  0  0
   -0.8798    0.1802    0.4734 N   0  0  0  0  0  0  0  0  0  0  0  0
   -3.7599    0.0716   -0.4823 C   0  0  0  0  0  0  0  0  0  0  0  0
   -2.5602    0.5839   -1.2883 C   0  0  0  0  0  0  0  0  0  0  0  0
   -5.0883    0.7099   -0.8941 C   0  0  0  0  0  0  0  0  0  0  0  0
   -1.2249   -0.0673   -0.9428 C   0  0  0  0  0  0  0  0  0  0  0  0
   -6.2491    0.1571   -0.0635 C   0  0  0  0  0  0  0  0  0  0  0  0
   -7.5819    0.7685   -0.4948 C   0  0  0  0  0  0  0  0  0  0  0  0
    1.5365   -1.0048    0.3852 C   0  0  0  0  0  0  0  0  0  0  0  0
    2.4387    0.0637    0.3516 C   0  0  0  0  0  0  0  0  0  0  0  0
    3.6100   -0.0541   -0.4338 C   0  0  0  0  0  0  0  0  0  0  0  0
   -8.7418    0.1969    0.3049 C   0  0  0  0  0  0  0  0  0  0  0  0
    1.7682   -2.1722   -0.3340 C   0  0  0  0  0  0  0  0  0  0  0  0
    2.2129    1.2461    1.0751 C   0  0  0  0  0  0  0  0  0  0  0  0
    3.8360   -1.2368   -1.1568 C   0  0  0  0  0  0  0  0  0  0  0  0
    2.9202   -2.2880   -1.1062 C   0  0  0  0  0  0  0  0  0  0  0  0
    4.5212    1.0138   -0.4725 C   0  0  0  0  0  0  0  0  0  0  0  0
    3.1289    2.2971    1.0248 C   0  0  0  0  0  0  0  0  0  0  0  0
    4.2807    2.1813    0.2524 C   0  0  0  0  0  0  0  0  0  0  0  0
  1 20  1  0
  2  3  2  0
  2  4  2  0
  2  5  1  0
  2 12  1  0
  5  9  1  0
  6  7  1  0
  6  8  1  0
  7  9  1  0
  8 10  1  0
 10 11  1  0
 11 15  1  0
 12 13  2  0
 12 16  1  0
 13 14  1  0
 13 17  1  0
 14 18  2  0
 14 20  1  0
 16 19  2  0
 17 21  2  0
 18 19  1  0
 20 22  2  0
 21 22  1  0
M  END
>  <PUBCHEM_COMPOUND_CID>  (1) 
5175

>  <PUBCHEM_CONFORMER_RMSD>  (1) 
0.8

>  <PUBCHEM_CONFORMER_DIVERSEORDER>  (1) 
1
109
9
174
233
140
25
55
149
58
168
4
172
171
163
205
61
110
35
21
187
153
51
169
201
220
152
235
48
112
14
209
206
165
84
70
212
103
186
183
179
54
180
62
147
223
224
199
214
18
107
181
108
154
185
143
20
230
17
23
67
142
126
176
11
27
177
195
213
159
117
8
98
60
105
114
167
208
123
193
188
227
197
225
211
46
215
221
158
6
12
237
13
192
83
66
170
77
79
101
131
125
155
104
30
113
124
52
75
49
146
128
81
88
95
202
161
229
139
145
219
178
57
129
207
93
85
194
106
184
16
141
133
148
231
73
102
226
37
99
218
89
157
53
29
36
204
238
3
236
134
22
164
43
135
232
59
137
74
87
200
156
33
68
151
80
234
92
19
69
40
144
210
94
78
121
132
41
39
56
217
120
100
175
2
28
173
7
38
198
42
182
216
82
24
162
127
228
116
10
118
44
26
122
222
15
50
191
190
111
31
196
65
32
76
97
90
72
86
47
5
115
96
34
160
45
91
166
189
119
150
136
203
71
63
138
130
64

>  <PUBCHEM_MMFF94_PARTIAL_CHARGES>  (1) 
21
1 -0.18
12 -0.01
16 -0.15
17 -0.15
18 -0.15
19 -0.15
2 1.45
20 0.18
21 -0.15
22 -0.15
3 -0.65
33 0.42
39 0.15
4 -0.65
40 0.15
41 0.15
42 0.15
43 0.15
44 0.15
5 -0.91
9 0.36

>  <PUBCHEM_EFFECTIVE_ROTOR_COUNT>  (1) 
8

>  <PUBCHEM_PHARMACOPHORE_FEATURES>  (1) 
7
1 15 hydrophobe
1 3 acceptor
1 4 acceptor
1 5 donor
5 6 7 8 10 11 hydrophobe
6 12 13 14 16 18 19 rings
6 13 14 17 20 21 22 rings

>  <PUBCHEM_HEAVY_ATOM_COUNT>  (1) 
22

>  <PUBCHEM_ATOM_DEF_STEREO_COUNT>  (1) 
0

>  <PUBCHEM_ATOM_UDEF_STEREO_COUNT>  (1) 
0

>  <PUBCHEM_BOND_DEF_STEREO_COUNT>  (1) 
0

>  <PUBCHEM_BOND_UDEF_STEREO_COUNT>  (1) 
0

>  <PUBCHEM_ISOTOPIC_ATOM_COUNT>  (1) 
0

>  <PUBCHEM_COMPONENT_COUNT>  (1) 
1

>  <PUBCHEM_CACTVS_TAUTO_COUNT>  (1) 
1

>  <PUBCHEM_CONFORMER_ID>  (1) 
0000143700000001

>  <PUBCHEM_MMFF94_ENERGY>  (1) 
32.5123

>  <PUBCHEM_FEATURE_SELFOVERLAP>  (1) 
35.565

>  <PUBCHEM_SHAPE_FINGERPRINT>  (1) 
10165383 225 18333454257539892628
10693767 8 17560530491432622414
11724838 91 13912324603126907921
11796584 16 15554159367672522397
12596602 18 18341333315368627305
12730499 353 18408605855185553435
12778500 126 17846222125063075449
12788726 201 16630536098326855731
13533116 47 18202281369200086479
13955234 65 18339069398360728955
14933364 13 18342739603414620261
15183329 4 15339122338795550449
16752209 62 14979965752347506071
17844677 252 18270965635957996917
21033648 29 18192145109080047816
221357 26 18273215274654266796
22149856 69 16226616157580207233
22224240 67 16660363701636949705
23016692 55 15267341821176158093
23424782 7 18336269037704423339
23557571 272 17969233398039031818
238 59 18202004365358092990
3004659 81 16343703231181084492
3472631 163 17168432670139540252
34797466 226 18411702076261819885
427121 178 17530676606958601818
437795 51 18410296934808739537
46194498 28 18200594692118436663
53794403 172 17824267218097107973
59682541 35 17095809910277719409
6442390 28 18040996258752653147
70251023 43 17843695357201082502
9971528 1 11167932581050595531

>  <PUBCHEM_SHAPE_MULTIPOLES>  (1) 
441.75
17.48
2.13
1.54
46.27
0.4
0.58
-7.08
-5.32
-3.41
0.2
-0.68
0.16
0.97

>  <PUBCHEM_SHAPE_SELFOVERLAP>  (1) 
891.754

>  <PUBCHEM_SHAPE_VOLUME>  (1) 
258.9

>  <PUBCHEM_COORDINATE_TYPE>  (1) 
2
5
10

$$$$
