5177
     RDKit          3D

 36 40  0  0  1  0  0  0  0  0999 V2000
    8.0378   -1.0588   -1.7419 Br  0  0  0  0  0  0  0  0  0  0  0  0
   -8.1079   -0.7886    1.9236 Br  0  0  0  0  0  0  0  0  0  0  0  0
    3.5212    2.8725    0.6023 O   0  0  0  0  0  0  0  0  0  0  0  0
   -3.5847    2.7861   -0.9244 O   0  0  0  0  0  0  0  0  0  0  0  0
    2.6689   -0.9182    1.4420 N   0  0  0  0  0  0  0  0  0  0  0  0
   -1.8875   -1.5718   -1.7820 N   0  0  0  0  0  0  0  0  0  0  0  0
    2.8114    1.4076   -1.0199 N   0  0  0  0  0  0  0  0  0  0  0  0
   -2.8748    1.5415    0.8724 N   0  0  0  0  0  0  0  0  0  0  0  0
    2.7055   -3.0690    1.6103 N   0  0  0  0  0  0  0  0  0  0  0  0
   -3.2678   -2.9651   -0.8828 N   0  0  0  0  0  0  0  0  0  0  0  0
    4.3464   -1.8583    2.8836 N   0  0  0  0  0  0  0  0  0  0  0  0
   -3.2390   -2.8720   -3.2850 N   0  0  0  0  0  0  0  0  0  0  0  0
    6.2161    1.8413    0.4178 N   0  0  0  0  0  0  0  0  0  0  0  0
   -6.2827    1.7987   -0.5998 N   0  0  0  0  0  0  0  0  0  0  0  0
    0.7331    0.9723    0.0348 C   0  0  0  0  0  0  0  0  0  0  0  0
   -0.8018    0.9639   -0.1228 C   0  0  0  0  0  0  0  0  0  0  0  0
    0.6893   -0.5509   -0.2082 C   0  0  0  0  0  0  0  0  0  0  0  0
   -0.7620   -0.5152    0.3142 C   0  0  0  0  0  0  0  0  0  0  0  0
    1.4426    1.8329   -0.9946 C   0  0  0  0  0  0  0  0  0  0  0  0
   -1.5046    1.9542    0.7881 C   0  0  0  0  0  0  0  0  0  0  0  0
    1.6590   -1.3950    0.6414 C   0  0  0  0  0  0  0  0  0  0  0  0
   -1.7349   -1.4574   -0.4212 C   0  0  0  0  0  0  0  0  0  0  0  0
    1.6822   -2.7570    0.7480 C   0  0  0  0  0  0  0  0  0  0  0  0
   -2.6090   -2.3397    0.1482 C   0  0  0  0  0  0  0  0  0  0  0  0
    3.2973   -1.9442    2.0253 C   0  0  0  0  0  0  0  0  0  0  0  0
   -2.8210   -2.4905   -2.0502 C   0  0  0  0  0  0  0  0  0  0  0  0
    3.7904    1.9722   -0.1951 C   0  0  0  0  0  0  0  0  0  0  0  0
   -3.8544    1.9982   -0.0160 C   0  0  0  0  0  0  0  0  0  0  0  0
    5.1418    1.4070   -0.3139 C   0  0  0  0  0  0  0  0  0  0  0  0
   -5.2076    1.4588    0.1792 C   0  0  0  0  0  0  0  0  0  0  0  0
    5.5743    0.3889   -1.1349 C   0  0  0  0  0  0  0  0  0  0  0  0
   -5.6411    0.5577    1.1266 C   0  0  0  0  0  0  0  0  0  0  0  0
    6.9571    0.2047   -0.8879 C   0  0  0  0  0  0  0  0  0  0  0  0
   -7.0254    0.3488    0.9097 C   0  0  0  0  0  0  0  0  0  0  0  0
    7.3276    1.1158    0.0765 C   0  0  0  0  0  0  0  0  0  0  0  0
   -7.3957    1.1284   -0.1639 C   0  0  0  0  0  0  0  0  0  0  0  0
  1 33  1  0
  2 34  1  0
  3 27  2  0
  4 28  2  0
  5 21  1  0
  5 25  1  0
  6 22  1  0
  6 26  1  0
  7 19  1  0
  7 27  1  0
  8 20  1  0
  8 28  1  0
  9 23  1  0
  9 25  2  0
 10 24  1  0
 10 26  2  0
 11 25  1  0
 12 26  1  0
 13 29  1  0
 13 35  1  0
 14 30  1  0
 14 36  1  0
 15 16  1  0
 15 17  1  0
 15 19  1  0
 16 18  1  0
 16 20  1  0
 17 18  1  0
 17 21  1  0
 18 22  1  0
 21 23  2  0
 22 24  2  0
 27 29  1  0
 28 30  1  0
 29 31  2  0
 30 32  2  0
 31 33  1  0
 32 34  1  0
 33 35  2  0
 34 36  2  0
M  CHG  2   9   1  10   1
M  END
>  <PUBCHEM_COMPOUND_CID>  (1) 
5177

>  <PUBCHEM_CONFORMER_RMSD>  (1) 
1.2

>  <PUBCHEM_CONFORMER_DIVERSEORDER>  (1) 
1
86
69
61
201
206
166
160
42
234
37
62
46
2
115
140
26
157
164
78
221
193
22
60
125
189
129
215
225
36
158
38
175
170
6
48
56
172
27
31
208
194
70
72
64
44
237
222
4
94
229
205
236
67
204
102
85
79
55
192
224
133
15
18
219
63
123
212
82
114
122
235
112
14
73
92
96
231
128
182
202
90
117
100
95
87
169
7
145
84
107
111
197
167
230
28
51
118
199
54
3
40
176
20
223
127
180
188
32
113
142
190
214
132
104
75
138
152
105
29
153
163
210
196
66
218
178
16
226
217
13
126
52
159
161
12
143
185
8
220
173
203
35
19
41
47
43
144
135
147
174
45
49
81
228
93
109
98
150
34
211
156
191
124
25
227
110
183
99
101
33
30
50
200
216
88
233
195
130
21
119
232
23
137
53
139
171
97
187
155
141
59
121
106
11
181
57
68
108
131
213
151
74
10
65
77
71
5
186
120
39
179
136
162
80
209
134
83
17
116
198
168
184
148
58
154
89
103
24
177
146
76
91
9
207
165
149

>  <PUBCHEM_MMFF94_PARTIAL_CHARGES>  (1) 
52
1 -0.06
10 -0.87
11 -0.84
12 -0.84
13 0.03
14 0.03
17 0.15
18 0.15
19 0.3
2 -0.06
20 0.3
21 0.2
22 0.2
23 0.2
24 0.2
25 1.07
26 1.07
27 0.71
28 0.71
29 -0.24
3 -0.57
30 -0.24
31 -0.15
32 -0.15
33 0.06
34 0.06
35 -0.3
36 -0.3
4 -0.57
45 0.45
46 0.45
47 0.37
48 0.37
49 0.15
5 -0.87
50 0.15
51 0.45
52 0.45
53 0.45
54 0.45
55 0.45
56 0.45
57 0.27
58 0.27
59 0.15
6 -0.87
60 0.15
61 0.15
62 0.15
7 -0.73
8 -0.73
9 -0.87

>  <PUBCHEM_EFFECTIVE_ROTOR_COUNT>  (1) 
10.8

>  <PUBCHEM_PHARMACOPHORE_FEATURES>  (1) 
23
1 1 hydrophobe
1 10 donor
1 11 donor
1 12 donor
1 13 cation
1 13 donor
1 14 cation
1 14 donor
1 2 hydrophobe
1 3 acceptor
1 4 acceptor
1 5 donor
1 6 donor
1 7 donor
1 8 donor
1 9 donor
4 15 16 17 18 rings
4 5 9 11 25 cation
4 6 10 12 26 cation
5 13 29 31 33 35 rings
5 14 30 32 34 36 rings
5 5 9 21 23 25 rings
5 6 10 22 24 26 rings

>  <PUBCHEM_HEAVY_ATOM_COUNT>  (1) 
36

>  <PUBCHEM_ATOM_DEF_STEREO_COUNT>  (1) 
0

>  <PUBCHEM_ATOM_UDEF_STEREO_COUNT>  (1) 
4

>  <PUBCHEM_BOND_DEF_STEREO_COUNT>  (1) 
0

>  <PUBCHEM_BOND_UDEF_STEREO_COUNT>  (1) 
0

>  <PUBCHEM_ISOTOPIC_ATOM_COUNT>  (1) 
0

>  <PUBCHEM_COMPONENT_COUNT>  (1) 
1

>  <PUBCHEM_CACTVS_TAUTO_COUNT>  (1) 
171

>  <PUBCHEM_CONFORMER_ID>  (1) 
0000143900000001

>  <PUBCHEM_MMFF94_ENERGY>  (1) 
29.8369

>  <PUBCHEM_FEATURE_SELFOVERLAP>  (1) 
117.052

>  <PUBCHEM_SHAPE_FINGERPRINT>  (1) 
10190108 129 18188219809154770315
11135926 11 18260820514344032574
11578080 2 17273406395423288217
11963148 33 17895193346287648699
13947920 75 17775283876642760309
15328829 1 18408888438163430788
15849732 13 18259710003495299037
21033648 144 17897440589474024237
21033650 10 15913336749909303731
21781055 127 17202773570865506059
23559900 14 17775280599461796936
249057 3 18272657856882298260
25147074 1 18337656581621437282
5104073 3 18261683558976017945
59521120 56 17561077056106784575
59755656 215 18113623369585382904
6086070 43 17632571703668184673
6669772 16 18130234765878312503

>  <PUBCHEM_SHAPE_MULTIPOLES>  (1) 
691.2
21.28
3.55
2.01
0.42
1.26
-0.27
-5.53
0.74
0.47
-0.38
0
2.09
-1.72

>  <PUBCHEM_SHAPE_SELFOVERLAP>  (1) 
1477.024

>  <PUBCHEM_SHAPE_VOLUME>  (1) 
390.3

>  <PUBCHEM_COORDINATE_TYPE>  (1) 
2
5
10

$$$$
