519
     RDKit          3D

 16 15  0  0  1  0  0  0  0  0999 V2000
   -3.9048   -0.6908    0.0230 P   0  0  0  0  0  0  0  0  0  0  0  0
    1.7526    0.0604    1.2886 O   0  0  0  0  0  0  0  0  0  0  0  0
    1.5627    2.4304   -0.2096 O   0  0  0  0  0  0  0  0  0  0  0  0
   -2.7211    0.3892    0.2662 O   0  0  0  0  0  0  0  0  0  0  0  0
   -0.8399    2.2319    0.7184 O   0  0  0  0  0  0  0  0  0  0  0  0
    5.2902   -0.7357   -0.0011 O   0  0  0  0  0  0  0  0  0  0  0  0
    3.5508   -2.1740    0.2444 O   0  0  0  0  0  0  0  0  0  0  0  0
   -3.2168   -2.1045    0.4016 O   0  0  0  0  0  0  0  0  0  0  0  0
   -4.0169   -0.7517   -1.5891 O   0  0  0  0  0  0  0  0  0  0  0  0
   -5.1904   -0.3913    0.7368 O   0  0  0  0  0  0  0  0  0  0  0  0
    1.7036    0.0315   -0.1433 C   0  0  0  0  0  0  0  0  0  0  0  0
    0.8897    1.2427   -0.6088 C   0  0  0  0  0  0  0  0  0  0  0  0
    3.1485    0.0584   -0.6522 C   0  0  0  0  0  0  0  0  0  0  0  0
   -0.5103    1.2986   -0.0154 C   0  0  0  0  0  0  0  0  0  0  0  0
   -1.4757    0.1828   -0.3698 C   0  0  0  0  0  0  0  0  0  0  0  0
    3.9778   -1.0778   -0.0896 C   0  0  0  0  0  0  0  0  0  0  0  0
  1  4  1  0
  1  8  1  0
  1  9  1  0
  1 10  2  0
  2 11  1  0
  3 12  1  0
  4 15  1  0
  5 14  2  0
  6 16  1  0
  7 16  2  0
 11 12  1  0
 11 13  1  0
 12 14  1  0
 13 16  1  0
 14 15  1  0
M  END
>  <PUBCHEM_COMPOUND_CID>  (1) 
519

>  <PUBCHEM_CONFORMER_RMSD>  (1) 
0.8

>  <PUBCHEM_CONFORMER_DIVERSEORDER>  (1) 
1
326
6
185
366
92
395
17
342
235
2
138
36
304
418
210
49
166
30
243
284
179
42
429
428
47
334
60
386
350
23
244
351
35
59
276
213
70
384
114
327
306
170
5
292
215
209
225
398
102
375
412
40
322
150
97
348
109
161
164
414
422
88
221
4
10
356
299
349
396
32
139
320
46
290
73
173
404
66
145
332
31
321
431
152
361
194
9
103
383
14
367
158
67
282
78
162
222
25
34
41
430
316
250
256
111
177
261
377
22
119
3
238
104
184
11
391
94
156
54
263
27
314
167
373
259
217
50
95
372
265
409
132
64
226
415
21
24
178
382
20
110
148
37
39
171
45
312
309
346
353
65
339
394
121
358
315
423
247
89
136
286
52
84
205
51
19
300
354
18
157
257
188
379
224
325
410
56
307
424
8
317
129
231
137
197
368
143
240
101
298
13
406
220
245
212
68
293
308
61
432
125
71
331
338
345
58
360
159
43
260
63
281
195
365
374
385
182
230
397
105
427
352
126
242
416
115
33
228
76
62
236
128
207
390
413
15
175
343
270
380
357
116
183
370
369
201
403
144
297
273
214
12
122
99
419
305
268
421
112
253
341
283
134
120
147
203
153
388
241
198
277
420
204
278
163
333
7
72
402
38
405
219
149
196
387
288
234
344
135
258
200
275
208
313
174
85
303
407
401
279
127
426
193
330
151
255
262
229
227
113
211
202
411
155
363
329
169
355
291
248
28
249
48
246
425
87
181
294
146
237
340
254
295
392
206
267
16
44
165
318
80
378
117
362
302
287
123
285
154
328
393
131
118
96
381
160
90
271
107
81
319
347
337
191
130
29
74
79
376
266
408
176
218
280
324
186
106
124
100
53
359
389
93
364
323
251
98
289
310
168
172
400
336
57
86
399
269
199
189
26
180
75
274
108
187
91
83
233
133
239
311
272
223
77
301
69
296
264
140
252
192
190
417
55
371
216
335
82
141
232
142

>  <PUBCHEM_MMFF94_PARTIAL_CHARGES>  (1) 
21
1 1.51
10 -0.7
11 0.28
12 0.34
13 0.06
14 0.45
15 0.34
16 0.66
2 -0.68
23 0.4
24 0.4
25 0.5
26 0.5
27 0.5
3 -0.68
4 -0.55
5 -0.57
6 -0.65
7 -0.57
8 -0.77
9 -0.77

>  <PUBCHEM_EFFECTIVE_ROTOR_COUNT>  (1) 
7

>  <PUBCHEM_PHARMACOPHORE_FEATURES>  (1) 
12
1 10 acceptor
1 2 acceptor
1 2 donor
1 3 acceptor
1 3 donor
1 5 acceptor
1 6 acceptor
1 7 acceptor
1 8 acceptor
1 9 acceptor
3 6 7 16 anion
4 1 8 9 10 anion

>  <PUBCHEM_HEAVY_ATOM_COUNT>  (1) 
16

>  <PUBCHEM_ATOM_DEF_STEREO_COUNT>  (1) 
0

>  <PUBCHEM_ATOM_UDEF_STEREO_COUNT>  (1) 
2

>  <PUBCHEM_BOND_DEF_STEREO_COUNT>  (1) 
0

>  <PUBCHEM_BOND_UDEF_STEREO_COUNT>  (1) 
0

>  <PUBCHEM_ISOTOPIC_ATOM_COUNT>  (1) 
0

>  <PUBCHEM_COMPONENT_COUNT>  (1) 
1

>  <PUBCHEM_CACTVS_TAUTO_COUNT>  (1) 
13

>  <PUBCHEM_CONFORMER_ID>  (1) 
0000020700000001

>  <PUBCHEM_MMFF94_ENERGY>  (1) 
-15.1578

>  <PUBCHEM_FEATURE_SELFOVERLAP>  (1) 
61.017

>  <PUBCHEM_SHAPE_FINGERPRINT>  (1) 
100836 57 10447922893412266538
10803635 8 17313375712834989691
11046707 91 18341894069401445182
11806522 49 18335140895318061564
122479 349 10519692402260287636
12251169 10 15482665788460290684
12555020 224 18337663209726900095
12596602 18 15554438622135803198
12841375 25 18407478859988164852
13533116 47 18126564759637620799
14123255 352 10159692491111092266
14123260 362 11746938668143355575
1420 369 18411985723917384846
17834072 8 18114455687703892501
18186145 218 17749382715587011697
200 152 18333733494311114188
20281475 54 18339081613663845957
20645477 56 7997675515837345148
20645477 70 18189047750079404671
20671657 53 18261116274397995325
20871999 31 18040993986445525364
21713013 43 17386284406625215863
221490 88 18116161149606250066
22485316 2 18411135831319402436
231179 274 9727638306249686902
23402539 116 18336264544445568390
23559900 14 18336261348937574928
2871803 45 18260545576729773070
351380 3 18413109450407316942
83771 10 18412262826632939516

>  <PUBCHEM_SHAPE_MULTIPOLES>  (1) 
280.3
9.88
2.06
0.93
1.85
0.39
0.1
-6.4
0.04
-0.57
-0.21
0.48
-0.02
-0.29

>  <PUBCHEM_SHAPE_SELFOVERLAP>  (1) 
532.766

>  <PUBCHEM_SHAPE_VOLUME>  (1) 
172

>  <PUBCHEM_COORDINATE_TYPE>  (1) 
2
5
10

$$$$
