5193
     RDKit          3D

 17 17  0  0  1  0  0  0  0  0999 V2000
    1.6335   -1.1124    1.7393 O   0  0  0  0  0  0  0  0  0  0  0  0
   -0.2748    0.2921   -2.3148 O   0  0  0  0  0  0  0  0  0  0  0  0
    2.3594    3.1298    0.1480 O   0  0  0  0  0  0  0  0  0  0  0  0
    1.9141    1.0379    0.9912 N   0  0  0  0  0  0  0  0  0  0  0  0
    0.9604    1.7398   -1.0336 N   0  0  0  0  0  0  0  0  0  0  0  0
    0.1452   -0.3358   -0.0106 C   0  0  0  0  0  0  0  0  0  0  0  0
   -1.1297    0.0922    0.7380 C   0  0  0  0  0  0  0  0  0  0  0  0
   -2.3889    0.0052   -0.1441 C   0  0  0  0  0  0  0  0  0  0  0  0
    0.0067   -1.7999   -0.4526 C   0  0  0  0  0  0  0  0  0  0  0  0
   -1.3128   -0.7772    1.9846 C   0  0  0  0  0  0  0  0  0  0  0  0
    1.3046   -0.2077    0.9725 C   0  0  0  0  0  0  0  0  0  0  0  0
    0.2628    0.5591   -1.2403 C   0  0  0  0  0  0  0  0  0  0  0  0
   -3.6601    0.4883    0.5583 C   0  0  0  0  0  0  0  0  0  0  0  0
    1.2807   -2.2946   -1.0526 C   0  0  0  0  0  0  0  0  0  0  0  0
    1.7717    2.0512    0.0508 C   0  0  0  0  0  0  0  0  0  0  0  0
   -4.8591    0.4493   -0.3773 C   0  0  0  0  0  0  0  0  0  0  0  0
    1.9862   -3.3173   -0.5568 C   0  0  0  0  0  0  0  0  0  0  0  0
  1 11  2  0
  2 12  2  0
  3 15  2  0
  4 11  1  0
  4 15  1  0
  5 12  1  0
  5 15  1  0
  6  7  1  0
  6  9  1  0
  6 11  1  0
  6 12  1  0
  7  8  1  0
  7 10  1  0
  8 13  1  0
  9 14  1  0
 13 16  1  0
 14 17  2  0
M  END
>  <PUBCHEM_COMPOUND_CID>  (1) 
5193

>  <PUBCHEM_CONFORMER_RMSD>  (1) 
0.8

>  <PUBCHEM_CONFORMER_DIVERSEORDER>  (1) 
1
11
15
7
6
9
12
8
5
2
3
14
13
4
10

>  <PUBCHEM_MMFF94_PARTIAL_CHARGES>  (1) 
17
1 -0.57
11 0.57
12 0.57
14 -0.29
15 0.69
17 -0.3
2 -0.57
28 0.37
29 0.37
3 -0.57
30 0.15
34 0.15
35 0.15
4 -0.49
5 -0.49
6 0.12
9 0.14

>  <PUBCHEM_EFFECTIVE_ROTOR_COUNT>  (1) 
5.6

>  <PUBCHEM_PHARMACOPHORE_FEATURES>  (1) 
9
1 1 acceptor
1 10 hydrophobe
1 16 hydrophobe
1 17 hydrophobe
1 2 acceptor
1 3 acceptor
1 4 donor
1 5 donor
6 4 5 6 11 12 15 rings

>  <PUBCHEM_HEAVY_ATOM_COUNT>  (1) 
17

>  <PUBCHEM_ATOM_DEF_STEREO_COUNT>  (1) 
0

>  <PUBCHEM_ATOM_UDEF_STEREO_COUNT>  (1) 
1

>  <PUBCHEM_BOND_DEF_STEREO_COUNT>  (1) 
0

>  <PUBCHEM_BOND_UDEF_STEREO_COUNT>  (1) 
0

>  <PUBCHEM_ISOTOPIC_ATOM_COUNT>  (1) 
0

>  <PUBCHEM_COMPONENT_COUNT>  (1) 
1

>  <PUBCHEM_CACTVS_TAUTO_COUNT>  (1) 
5

>  <PUBCHEM_CONFORMER_ID>  (1) 
0000144900000001

>  <PUBCHEM_MMFF94_ENERGY>  (1) 
47.4578

>  <PUBCHEM_FEATURE_SELFOVERLAP>  (1) 
45.712

>  <PUBCHEM_SHAPE_FINGERPRINT>  (1) 
12423570 1 15835700181810173056
12725867 57 18196942067088087927
13132413 78 17696220030908357928
13134695 92 18194413194945216575
13380537 58 17836941357254278436
14142880 1 17468736937646796148
14817 1 11667494589318014086
15852999 172 18188500197599531595
15906896 17 17468763339005488962
16945 1 18339627963141445647
18410436 195 18124324800246560295
20473742 2 18411140212344520990
20511035 2 17896889961000097792
20671657 53 17984144756055575119
21524375 3 18046907357537910441
23419403 2 17970610914462528182
23526113 38 18043548122013617907
23557571 272 17902231105574496946
576247 118 17978506438594670694
7364860 26 18412832360813280693
81228 2 17111034559381068618

>  <PUBCHEM_SHAPE_MULTIPOLES>  (1) 
322.28
4.79
2.89
1.65
8.19
0.18
-0.06
0.12
0.01
-3.95
0.54
-0.12
-0.18
0.41

>  <PUBCHEM_SHAPE_SELFOVERLAP>  (1) 
656.585

>  <PUBCHEM_SHAPE_VOLUME>  (1) 
184

>  <PUBCHEM_COORDINATE_TYPE>  (1) 
2
5
10

$$$$
