5205
     RDKit          3D

 20 23  0  0  1  0  0  0  0  0999 V2000
    3.2989   -1.0439    0.5113 N   0  0  0  0  0  0  0  0  0  0  0  0
    0.5152   -1.1270   -0.0970 C   0  0  0  0  0  0  0  0  0  0  0  0
    1.1404    0.0774   -0.1140 C   0  0  0  0  0  0  0  0  0  0  0  0
    1.3325   -2.4080   -0.0174 C   0  0  0  0  0  0  0  0  0  0  0  0
    2.6591    0.1633   -0.0354 C   0  0  0  0  0  0  0  0  0  0  0  0
    2.8387   -2.2191   -0.2261 C   0  0  0  0  0  0  0  0  0  0  0  0
   -0.9667   -1.3081   -0.1224 C   0  0  0  0  0  0  0  0  0  0  0  0
    0.4437    1.3942   -0.1696 C   0  0  0  0  0  0  0  0  0  0  0  0
   -1.8200   -0.5249    0.6872 C   0  0  0  0  0  0  0  0  0  0  0  0
   -0.6778    1.6712    0.6416 C   0  0  0  0  0  0  0  0  0  0  0  0
   -1.2697    0.6020    1.5278 C   0  0  0  0  0  0  0  0  0  0  0  0
    4.7553   -0.9275    0.4517 C   0  0  0  0  0  0  0  0  0  0  0  0
   -1.5497   -2.2942   -0.9383 C   0  0  0  0  0  0  0  0  0  0  0  0
    0.9308    2.4117   -1.0091 C   0  0  0  0  0  0  0  0  0  0  0  0
   -3.2070   -0.7528    0.6760 C   0  0  0  0  0  0  0  0  0  0  0  0
   -1.2802    2.9394    0.5953 C   0  0  0  0  0  0  0  0  0  0  0  0
   -2.9297   -2.5105   -0.9416 C   0  0  0  0  0  0  0  0  0  0  0  0
    0.3234    3.6682   -1.0461 C   0  0  0  0  0  0  0  0  0  0  0  0
   -3.7575   -1.7441   -0.1310 C   0  0  0  0  0  0  0  0  0  0  0  0
   -0.7798    3.9327   -0.2429 C   0  0  0  0  0  0  0  0  0  0  0  0
  1  5  1  0
  1  6  1  0
  1 12  1  0
  2  3  2  0
  2  4  1  0
  2  7  1  0
  3  5  1  0
  3  8  1  0
  4  6  1  0
  7  9  2  0
  7 13  1  0
  8 10  2  0
  8 14  1  0
  9 11  1  0
  9 15  1  0
 10 11  1  0
 10 16  1  0
 13 17  2  0
 14 18  2  0
 15 19  2  0
 16 20  2  0
 17 19  1  0
 18 20  1  0
M  END
>  <PUBCHEM_COMPOUND_CID>  (1) 
5205

>  <PUBCHEM_CONFORMER_RMSD>  (1) 
0.6

>  <PUBCHEM_CONFORMER_DIVERSEORDER>  (1) 
1
2

>  <PUBCHEM_MMFF94_PARTIAL_CHARGES>  (1) 
28
1 -0.81
10 -0.14
11 0.29
12 0.27
13 -0.15
14 -0.15
15 -0.15
16 -0.15
17 -0.15
18 -0.15
19 -0.15
2 -0.17
20 -0.15
3 -0.17
32 0.15
33 0.15
34 0.15
35 0.15
36 0.15
37 0.15
38 0.15
39 0.15
4 0.14
5 0.41
6 0.27
7 0.03
8 0.03
9 -0.14

>  <PUBCHEM_EFFECTIVE_ROTOR_COUNT>  (1) 
1

>  <PUBCHEM_PHARMACOPHORE_FEATURES>  (1) 
5
1 1 cation
6 1 2 3 4 5 6 rings
6 7 9 13 15 17 19 rings
6 8 10 14 16 18 20 rings
7 2 3 7 8 9 10 11 rings

>  <PUBCHEM_HEAVY_ATOM_COUNT>  (1) 
20

>  <PUBCHEM_ATOM_DEF_STEREO_COUNT>  (1) 
0

>  <PUBCHEM_ATOM_UDEF_STEREO_COUNT>  (1) 
0

>  <PUBCHEM_BOND_DEF_STEREO_COUNT>  (1) 
0

>  <PUBCHEM_BOND_UDEF_STEREO_COUNT>  (1) 
0

>  <PUBCHEM_ISOTOPIC_ATOM_COUNT>  (1) 
0

>  <PUBCHEM_COMPONENT_COUNT>  (1) 
1

>  <PUBCHEM_CACTVS_TAUTO_COUNT>  (1) 
1

>  <PUBCHEM_CONFORMER_ID>  (1) 
0000145500000001

>  <PUBCHEM_MMFF94_ENERGY>  (1) 
68.9075

>  <PUBCHEM_FEATURE_SELFOVERLAP>  (1) 
25.403

>  <PUBCHEM_SHAPE_FINGERPRINT>  (1) 
104564 63 18340488859239561366
10670039 82 18335151882551261156
10871710 139 18264228975142515412
10967382 1 18195249051098971242
1100329 8 17689998260127217610
11045515 52 18261384576767784591
11101153 10 18334296496780316620
11265709 11 18409450305784944186
11578080 2 17916567843578421969
12035759 4 18192455115076022436
12422481 6 17763771813896172441
12553582 1 18337968868820136450
12788726 201 18189325784465525890
13004483 165 18337657629625242619
13009979 54 17987534769178308995
13132413 78 18269836565626421845
13140716 1 18340495559335653009
13681431 1 18118393171148258656
138480 1 15168262212297981740
13965767 371 17625291648365909171
14181834 199 18118970436174813461
14840074 17 17541348656198135024
16945 1 18201723916235104786
17357779 13 18270662208606552871
1813 80 18340217365935937734
18785283 64 17828773081477574275
19591789 44 16392971587076241418
21041028 32 18335151907408259521
21197605 99 17835252147535289785
21304303 282 17034386598949909180
21339142 126 18339075991304073378
21524375 3 17181661675721443146
22112679 90 18200050541157696123
22182313 1 16168656273215041945
2255824 54 17978511163011178063
22907989 373 18119541946230340076
2334 1 18052827132367803691
23388829 49 18339648935498368096
23402539 116 18412255138800215878
23419403 2 17843651543606517601
23559900 14 17980183507813861367
238 59 17545278284684458487
25 1 17544763790546911813
25147074 1 17771355450910660507
257057 1 18411415141701440545
2748010 2 17402356779546852449
3091708 16 9208707304883099504
34934 24 18263642879362558947
352729 6 17619348701901895424
458136 41 17326905474292975803
6992083 37 18342752801179097595
7364860 26 17978226389441295327
7471813 234 17914600894680388335
81228 2 18336550404277959442
84936 182 17621320568991111161
90316 7 18410290272528584090

>  <PUBCHEM_SHAPE_MULTIPOLES>  (1) 
406.61
5.39
4.63
1.04
2.4
4.71
0.05
-5.43
0.54
-0.4
-1.3
-0.33
0.24
-1.03

>  <PUBCHEM_SHAPE_SELFOVERLAP>  (1) 
899.227

>  <PUBCHEM_SHAPE_VOLUME>  (1) 
212.9

>  <PUBCHEM_COORDINATE_TYPE>  (1) 
2
5
10

$$$$
