5217
     RDKit          3D

 31 32  0  0  0  0  0  0  0  0999 V2000
   -3.6063   -4.2859    0.8268 Cl  0  0  0  0  0  0  0  0  0  0  0  0
   -1.1809   -1.9249   -2.2429 Cl  0  0  0  0  0  0  0  0  0  0  0  0
   -3.6247    1.5943    0.9241 O   0  0  0  0  0  0  0  0  0  0  0  0
    4.2716   -1.4780   -0.0849 O   0  0  0  0  0  0  0  0  0  0  0  0
   -0.9439    2.2521    0.2808 O   0  0  0  0  0  0  0  0  0  0  0  0
    3.1741    1.5348    0.9101 O   0  0  0  0  0  0  0  0  0  0  0  0
   -1.5507    1.3053   -1.7289 O   0  0  0  0  0  0  0  0  0  0  0  0
    4.7794    1.3630   -0.7323 O   0  0  0  0  0  0  0  0  0  0  0  0
   -3.2566    2.2575   -0.2779 C   0  0  0  0  0  0  0  0  0  0  0  0
    4.5026   -0.4492    0.8681 C   0  0  0  0  0  0  0  0  0  0  0  0
    1.2972    3.0233    0.6649 C   0  0  0  0  0  0  0  0  0  0  0  0
    0.4300    1.9690   -0.0031 C   0  0  0  0  0  0  0  0  0  0  0  0
    2.7768    2.7986    0.3953 C   0  0  0  0  0  0  0  0  0  0  0  0
   -1.8368    1.8632   -0.6762 C   0  0  0  0  0  0  0  0  0  0  0  0
    4.1992    0.9122    0.2483 C   0  0  0  0  0  0  0  0  0  0  0  0
   -4.2525    1.8612   -1.3665 C   0  0  0  0  0  0  0  0  0  0  0  0
   -3.2998    3.7604   -0.0203 C   0  0  0  0  0  0  0  0  0  0  0  0
    3.6023   -0.7056    2.0756 C   0  0  0  0  0  0  0  0  0  0  0  0
    5.9745   -0.4957    1.2659 C   0  0  0  0  0  0  0  0  0  0  0  0
   -3.6205    0.2239    0.9003 C   0  0  0  0  0  0  0  0  0  0  0  0
    3.0004   -1.5815   -0.5869 C   0  0  0  0  0  0  0  0  0  0  0  0
   -2.4629   -0.4760    1.2406 C   0  0  0  0  0  0  0  0  0  0  0  0
    2.6440   -0.8731   -1.7344 C   0  0  0  0  0  0  0  0  0  0  0  0
   -4.7743   -0.4710    0.5378 C   0  0  0  0  0  0  0  0  0  0  0  0
    2.0638   -2.3970    0.0483 C   0  0  0  0  0  0  0  0  0  0  0  0
   -2.4589   -1.8705    1.2183 C   0  0  0  0  0  0  0  0  0  0  0  0
    1.3510   -0.9800   -2.2466 C   0  0  0  0  0  0  0  0  0  0  0  0
   -4.7706   -1.8656    0.5154 C   0  0  0  0  0  0  0  0  0  0  0  0
    0.7709   -2.5039   -0.4638 C   0  0  0  0  0  0  0  0  0  0  0  0
   -3.6129   -2.5654    0.8557 C   0  0  0  0  0  0  0  0  0  0  0  0
    0.4144   -1.7954   -1.6112 C   0  0  0  0  0  0  0  0  0  0  0  0
  1 30  1  0
  2 31  1  0
  3  9  1  0
  3 20  1  0
  4 10  1  0
  4 21  1  0
  5 12  1  0
  5 14  1  0
  6 13  1  0
  6 15  1  0
  7 14  2  0
  8 15  2  0
  9 14  1  0
  9 16  1  0
  9 17  1  0
 10 15  1  0
 10 18  1  0
 10 19  1  0
 11 12  1  0
 11 13  1  0
 20 22  2  0
 20 24  1  0
 21 23  2  0
 21 25  1  0
 22 26  1  0
 23 27  1  0
 24 28  2  0
 25 29  2  0
 26 30  2  0
 27 31  2  0
 28 30  1  0
 29 31  1  0
M  END
>  <PUBCHEM_COMPOUND_CID>  (1) 
5217

>  <PUBCHEM_CONFORMER_RMSD>  (1) 
1.8

>  <PUBCHEM_CONFORMER_DIVERSEORDER>  (1) 
2
9
31
16
15
33
12
5
27
23
26
7
24
4
11
30
22
36
13
32
17
10
18
25
20
29
35
1
28
19
34
6
3
14
8
21

>  <PUBCHEM_MMFF94_PARTIAL_CHARGES>  (1) 
34
1 -0.18
10 0.34
12 0.28
13 0.28
14 0.66
15 0.66
2 -0.18
20 0.08
21 0.08
22 -0.15
23 -0.15
24 -0.15
25 -0.15
26 -0.15
27 -0.15
28 -0.15
29 -0.15
3 -0.36
30 0.18
31 0.18
4 -0.36
5 -0.43
50 0.15
51 0.15
52 0.15
53 0.15
54 0.15
55 0.15
56 0.15
57 0.15
6 -0.43
7 -0.57
8 -0.57
9 0.34

>  <PUBCHEM_EFFECTIVE_ROTOR_COUNT>  (1) 
12

>  <PUBCHEM_PHARMACOPHORE_FEATURES>  (1) 
8
1 3 acceptor
1 4 acceptor
1 7 acceptor
1 8 acceptor
3 10 18 19 hydrophobe
3 9 16 17 hydrophobe
6 20 22 24 26 28 30 rings
6 21 23 25 27 29 31 rings

>  <PUBCHEM_HEAVY_ATOM_COUNT>  (1) 
31

>  <PUBCHEM_ATOM_DEF_STEREO_COUNT>  (1) 
0

>  <PUBCHEM_ATOM_UDEF_STEREO_COUNT>  (1) 
0

>  <PUBCHEM_BOND_DEF_STEREO_COUNT>  (1) 
0

>  <PUBCHEM_BOND_UDEF_STEREO_COUNT>  (1) 
0

>  <PUBCHEM_ISOTOPIC_ATOM_COUNT>  (1) 
0

>  <PUBCHEM_COMPONENT_COUNT>  (1) 
1

>  <PUBCHEM_CACTVS_TAUTO_COUNT>  (1) 
1

>  <PUBCHEM_CONFORMER_ID>  (1) 
0000146100000002

>  <PUBCHEM_MMFF94_ENERGY>  (1) 
102.4689

>  <PUBCHEM_FEATURE_SELFOVERLAP>  (1) 
40.599

>  <PUBCHEM_SHAPE_FINGERPRINT>  (1) 
10675989 125 15676877299453114791
11595378 159 18336550537549150246
12156800 1 15223184631172741140
12422481 6 17987246692916043695
12633257 1 18409739443226053873
13402501 40 18411419479528582992
13583140 156 18188757371334952230
13726171 33 18267047049331249632
14081887 123 18336836286118092319
14840074 17 18056767752504671535
14950920 106 18042110102739127906
20764821 26 18337113349973401625
21033648 29 17703214136279291530
23559900 14 18049449145175143734
3459 110 18409729607603421463
392239 28 18408325518322591307
42626532 9 18121532139666146874
469060 322 17916850435373048127
5081480 168 16700921305388355572
508706 21 18411702058570228039
5309563 4 18049448346532382995
6823239 73 18200049356142368004

>  <PUBCHEM_SHAPE_MULTIPOLES>  (1) 
606.49
11.11
4.58
1.83
4.85
0.58
-0.72
-1.07
3.97
-4.23
0.3
0.41
-0.8
1.63

>  <PUBCHEM_SHAPE_SELFOVERLAP>  (1) 
1253.114

>  <PUBCHEM_SHAPE_VOLUME>  (1) 
349.3

>  <PUBCHEM_COORDINATE_TYPE>  (1) 
2
5
10

$$$$
