5219
     RDKit          3D

 12 13  0  0  0  0  0  0  0  0999 V2000
   -3.5618   -0.1343   -0.2987 O   0  0  0  0  0  0  0  0  0  0  0  0
    2.7419    1.0331   -0.2822 O   0  0  0  0  0  0  0  0  0  0  0  0
   -0.7708   -0.0179    0.2645 N   0  0  0  0  0  0  0  0  0  0  0  0
    0.6744    0.1226    0.1113 N   0  0  0  0  0  0  0  0  0  0  0  0
    1.3320    1.3661   -0.2480 N   0  0  0  0  0  0  0  0  0  0  0  0
    3.9707   -0.9479    0.1054 N   0  0  0  0  0  0  0  0  0  0  0  0
   -1.5601    1.1959    0.0282 C   0  0  0  0  0  0  0  0  0  0  0  0
   -1.3749   -1.1780   -0.3999 C   0  0  0  0  0  0  0  0  0  0  0  0
   -3.0186    0.9753    0.4158 C   0  0  0  0  0  0  0  0  0  0  0  0
   -2.8388   -1.3275    0.0012 C   0  0  0  0  0  0  0  0  0  0  0  0
    1.5277   -0.8061    0.2716 C   0  0  0  0  0  0  0  0  0  0  0  0
    2.8782   -0.2815    0.0307 C   0  0  0  0  0  0  0  0  0  0  0  0
  1  9  1  0
  1 10  1  0
  2  5  1  0
  2 12  1  0
  3  4  1  0
  3  7  1  0
  3  8  1  0
  4  5  1  0
  4 11  2  0
  6 12  2  0
  7  9  1  0
  8 10  1  0
 11 12  1  0
M  CHG  2   4   1   5  -1
M  END
>  <PUBCHEM_COMPOUND_CID>  (1) 
5219

>  <PUBCHEM_CONFORMER_RMSD>  (1) 
0.6

>  <PUBCHEM_CONFORMER_DIVERSEORDER>  (1) 
1
5
4
2
3

>  <PUBCHEM_MMFF94_PARTIAL_CHARGES>  (1) 
14
1 -0.56
10 0.28
11 0.34
12 0.6
2 -0.52
21 0.06
22 0.4
3 -0.37
4 -0.12
5 -0.08
6 -0.85
7 0.27
8 0.27
9 0.28

>  <PUBCHEM_EFFECTIVE_ROTOR_COUNT>  (1) 
2.2

>  <PUBCHEM_PHARMACOPHORE_FEATURES>  (1) 
4
1 1 acceptor
1 6 donor
5 2 4 5 11 12 rings
6 1 3 7 8 9 10 rings

>  <PUBCHEM_HEAVY_ATOM_COUNT>  (1) 
12

>  <PUBCHEM_ATOM_DEF_STEREO_COUNT>  (1) 
0

>  <PUBCHEM_ATOM_UDEF_STEREO_COUNT>  (1) 
0

>  <PUBCHEM_BOND_DEF_STEREO_COUNT>  (1) 
0

>  <PUBCHEM_BOND_UDEF_STEREO_COUNT>  (1) 
0

>  <PUBCHEM_ISOTOPIC_ATOM_COUNT>  (1) 
0

>  <PUBCHEM_COMPONENT_COUNT>  (1) 
1

>  <PUBCHEM_CACTVS_TAUTO_COUNT>  (1) 
1

>  <PUBCHEM_CONFORMER_ID>  (1) 
0000146300000001

>  <PUBCHEM_MMFF94_ENERGY>  (1) 
25.5691

>  <PUBCHEM_FEATURE_SELFOVERLAP>  (1) 
20.297

>  <PUBCHEM_SHAPE_FINGERPRINT>  (1) 
11062470 55 12175617373739743499
12932764 1 17240472607070983114
14144814 61 18410573976561575171
14325111 11 18411138051801754617
15775835 57 18335144159134451929
18186145 218 17748820834531827394
190213 19 18408319994904535930
19422 9 18408890658656209079
20201158 50 18343021068883524447
20279233 1 16200432459445276638
20871998 184 18059579152208070759
21119208 17 18335136475374545463
23402539 116 18059847347441034853
23402655 69 18334856095440682076
23463225 33 18410292467473318718
23552423 10 18261672687600693103
3248919 1 17275116023755015609
7364860 26 18270961379234047352

>  <PUBCHEM_SHAPE_MULTIPOLES>  (1) 
215.29
6.36
1.44
0.63
1.83
0.06
0.01
-0.78
0.05
-0.38
-0.05
-0.08
-0.01
-0.33

>  <PUBCHEM_SHAPE_SELFOVERLAP>  (1) 
435.221

>  <PUBCHEM_SHAPE_VOLUME>  (1) 
124.2

>  <PUBCHEM_COORDINATE_TYPE>  (1) 
2
5
10

$$$$
