5226
     RDKit          3D

 14 15  0  0  0  0  0  0  0  0999 V2000
   -2.9429    0.2545   -0.1110 S   0  0  0  0  0  0  0  0  0  0  0  0
   -3.0763    1.5618   -0.7386 O   0  0  0  0  0  0  0  0  0  0  0  0
   -3.6796   -0.8825   -0.6449 O   0  0  0  0  0  0  0  0  0  0  0  0
    3.4469    1.1978    0.3549 N   0  0  0  0  0  0  0  0  0  0  0  0
   -3.2962    0.4037    1.5540 N   0  0  0  0  0  0  0  0  0  0  0  0
    1.4707   -0.8243    0.0155 C   0  0  0  0  0  0  0  0  0  0  0  0
    1.0793    0.5257   -0.0298 C   0  0  0  0  0  0  0  0  0  0  0  0
    2.9317   -1.1878    0.0919 C   0  0  0  0  0  0  0  0  0  0  0  0
    2.1151    1.6213   -0.0932 C   0  0  0  0  0  0  0  0  0  0  0  0
    3.8472   -0.0345   -0.3229 C   0  0  0  0  0  0  0  0  0  0  0  0
   -0.2835    0.8480   -0.0790 C   0  0  0  0  0  0  0  0  0  0  0  0
   -1.2477   -0.1595   -0.0557 C   0  0  0  0  0  0  0  0  0  0  0  0
    0.4947   -1.8284    0.0485 C   0  0  0  0  0  0  0  0  0  0  0  0
   -0.8592   -1.4958    0.0103 C   0  0  0  0  0  0  0  0  0  0  0  0
  1  2  2  0
  1  3  2  0
  1  5  1  0
  1 12  1  0
  4  9  1  0
  4 10  1  0
  6  7  2  0
  6  8  1  0
  6 13  1  0
  7  9  1  0
  7 11  1  0
  8 10  1  0
 11 12  2  0
 12 14  1  0
 13 14  2  0
M  END
>  <PUBCHEM_COMPOUND_CID>  (1) 
5226

>  <PUBCHEM_CONFORMER_RMSD>  (1) 
0.6

>  <PUBCHEM_CONFORMER_DIVERSEORDER>  (1) 
1
2

>  <PUBCHEM_MMFF94_PARTIAL_CHARGES>  (1) 
20
1 1.45
10 0.27
11 -0.15
12 -0.01
13 -0.15
14 -0.15
2 -0.65
21 0.36
22 0.15
23 0.15
24 0.15
25 0.42
26 0.42
3 -0.65
4 -0.9
5 -0.98
6 -0.14
7 -0.14
8 0.14
9 0.41

>  <PUBCHEM_EFFECTIVE_ROTOR_COUNT>  (1) 
1.8

>  <PUBCHEM_PHARMACOPHORE_FEATURES>  (1) 
7
1 2 acceptor
1 3 acceptor
1 4 cation
1 4 donor
1 5 donor
6 4 6 7 8 9 10 rings
6 6 7 11 12 13 14 rings

>  <PUBCHEM_HEAVY_ATOM_COUNT>  (1) 
14

>  <PUBCHEM_ATOM_DEF_STEREO_COUNT>  (1) 
0

>  <PUBCHEM_ATOM_UDEF_STEREO_COUNT>  (1) 
0

>  <PUBCHEM_BOND_DEF_STEREO_COUNT>  (1) 
0

>  <PUBCHEM_BOND_UDEF_STEREO_COUNT>  (1) 
0

>  <PUBCHEM_ISOTOPIC_ATOM_COUNT>  (1) 
0

>  <PUBCHEM_COMPONENT_COUNT>  (1) 
1

>  <PUBCHEM_CACTVS_TAUTO_COUNT>  (1) 
1

>  <PUBCHEM_CONFORMER_ID>  (1) 
0000146A00000001

>  <PUBCHEM_MMFF94_ENERGY>  (1) 
11.9423

>  <PUBCHEM_FEATURE_SELFOVERLAP>  (1) 
35.56

>  <PUBCHEM_SHAPE_FINGERPRINT>  (1) 
10219947 1 18334577936320856132
10608611 8 18408599275205952764
10980938 120 18409446981828533506
11132069 177 18341041956754114498
11471102 20 18410569570236339862
11543360 7 15625932192430519312
12491281 212 18202010931698528427
12932764 1 18335424538836408407
13380535 21 18336839696364368674
13380535 76 18410290358676128790
14144814 61 18410854369243430954
14251717 144 18411412921145241902
14289901 80 16732995227179108513
14325111 11 18410290315472930021
14897335 6 18340481274585733854
14911166 2 18411706474208175622
14993402 34 18411698789984246702
15219456 202 18260830354335556005
15309172 13 18411423890686914115
15442244 35 18267864973948278578
15536298 74 18272087210500112182
15775835 57 18342460339723353821
16945 1 18339644442968026546
17844478 74 17894919511719925725
18186145 218 18272938206403191892
19026448 4 15936412234326448426
19422 9 17917994966489018703
200 152 18130780183996367655
20645477 70 18338227146836808823
21501502 16 18267302217363409070
21524375 3 18340485672400370254
23402539 116 18271516525310526060
23402655 69 18341604902470779541
23463225 33 18335417950535904870
23557571 272 13973956585134599715
23559900 14 18200602510040758788
25 1 18336543815792852422
2748010 2 18266465480387846134
3248919 1 17418092079388259383
528886 8 18410849984451151866
53812653 166 18412541046340834144
63268167 104 18341331119495470801
69090 78 18271239520899249119
7364860 26 18268427936908375774
81228 2 17760362592809505595

>  <PUBCHEM_SHAPE_MULTIPOLES>  (1) 
270.26
6.51
1.73
0.81
0.93
0.13
0.17
-1.17
-0.01
-0.39
-0.08
0.58
-0.08
0.01

>  <PUBCHEM_SHAPE_SELFOVERLAP>  (1) 
559.348

>  <PUBCHEM_SHAPE_VOLUME>  (1) 
155.1

>  <PUBCHEM_COORDINATE_TYPE>  (1) 
2
5
10

$$$$
