5230
     RDKit          3D

  8  7  0  0  1  0  0  0  0  0999 V2000
    1.5370    0.1263    0.0528 P   0  0  0  0  0  0  0  0  0  0  0  0
    1.6306    0.4307   -1.5260 O   0  0  0  0  0  0  0  0  0  0  0  0
    1.6311    1.3249    0.9308 O   0  0  0  0  0  0  0  0  0  0  0  0
   -3.6974    0.3397   -0.0727 N   0  0  0  0  0  0  0  0  0  0  0  0
   -0.0497   -0.7271    0.1858 C   0  0  0  0  0  0  0  0  0  0  0  0
   -1.2536    0.1872   -0.0034 C   0  0  0  0  0  0  0  0  0  0  0  0
   -2.5739   -0.5729    0.1077 C   0  0  0  0  0  0  0  0  0  0  0  0
    2.7759   -1.1087    0.3251 C   0  0  0  0  0  0  0  0  0  0  0  0
  1  2  1  0
  1  3  2  0
  1  5  1  0
  1  8  1  0
  4  7  1  0
  5  6  1  0
  6  7  1  0
M  END
>  <PUBCHEM_COMPOUND_CID>  (1) 
5230

>  <PUBCHEM_CONFORMER_RMSD>  (1) 
0.6

>  <PUBCHEM_CONFORMER_DIVERSEORDER>  (1) 
1
13
14
8
11
16
3
2
4
12
5
15
7
9
10
6

>  <PUBCHEM_MMFF94_PARTIAL_CHARGES>  (1) 
8
1 0.97
18 0.5
19 0.36
2 -0.77
20 0.36
3 -0.7
4 -0.99
7 0.27

>  <PUBCHEM_EFFECTIVE_ROTOR_COUNT>  (1) 
3

>  <PUBCHEM_PHARMACOPHORE_FEATURES>  (1) 
2
1 4 cation
1 4 donor

>  <PUBCHEM_HEAVY_ATOM_COUNT>  (1) 
8

>  <PUBCHEM_ATOM_DEF_STEREO_COUNT>  (1) 
0

>  <PUBCHEM_ATOM_UDEF_STEREO_COUNT>  (1) 
0

>  <PUBCHEM_BOND_DEF_STEREO_COUNT>  (1) 
0

>  <PUBCHEM_BOND_UDEF_STEREO_COUNT>  (1) 
0

>  <PUBCHEM_ISOTOPIC_ATOM_COUNT>  (1) 
0

>  <PUBCHEM_COMPONENT_COUNT>  (1) 
1

>  <PUBCHEM_CACTVS_TAUTO_COUNT>  (1) 
1

>  <PUBCHEM_CONFORMER_ID>  (1) 
0000146E00000001

>  <PUBCHEM_MMFF94_ENERGY>  (1) 
-6.1969

>  <PUBCHEM_FEATURE_SELFOVERLAP>  (1) 
10.148

>  <PUBCHEM_SHAPE_FINGERPRINT>  (1) 
11062470 55 16917062248376816746
12932741 1 18130237067706176739
12932764 1 18341901839387810099
14325111 11 18410853295855164771
14390081 3 18413386553655550113
23235687 12 17418368121104766053
23552449 11 17989204862884287728
29004967 10 15410899565003788242
3248919 1 17603863468210551315
5084963 1 18040715844373816723

>  <PUBCHEM_SHAPE_MULTIPOLES>  (1) 
151.77
5.05
1.08
0.92
3.83
0.02
-0.19
0.43
0.07
-0.59
0.14
-0.54
-0.27
0

>  <PUBCHEM_SHAPE_SELFOVERLAP>  (1) 
254.894

>  <PUBCHEM_SHAPE_VOLUME>  (1) 
103.6

>  <PUBCHEM_COORDINATE_TYPE>  (1) 
2
5
10

$$$$
