5231
     RDKit          3D

 14 13  0  0  1  0  0  0  0  0999 V2000
   -2.1212    0.7897   -0.9461 S   0  0  0  0  0  0  0  0  0  0  0  0
    0.8379   -2.0331    1.7411 O   0  0  0  0  0  0  0  0  0  0  0  0
    1.8278   -2.0734   -0.2979 O   0  0  0  0  0  0  0  0  0  0  0  0
    2.0439    1.5705    1.1499 O   0  0  0  0  0  0  0  0  0  0  0  0
   -2.7721    2.2781    0.8515 O   0  0  0  0  0  0  0  0  0  0  0  0
    0.9748    0.5009   -0.6198 N   0  0  0  0  0  0  0  0  0  0  0  0
   -2.1776    1.2046    0.7118 N   0  0  0  0  0  0  0  0  0  0  0  0
   -1.1977   -0.7585   -0.5378 C   0  0  0  0  0  0  0  0  0  0  0  0
    0.1337   -0.3786    0.1601 C   0  0  0  0  0  0  0  0  0  0  0  0
   -0.9370   -1.4717   -1.8742 C   0  0  0  0  0  0  0  0  0  0  0  0
   -2.1196   -1.6295    0.3294 C   0  0  0  0  0  0  0  0  0  0  0  0
    1.0188   -1.5749    0.4749 C   0  0  0  0  0  0  0  0  0  0  0  0
    1.8595    1.4016   -0.0526 C   0  0  0  0  0  0  0  0  0  0  0  0
    2.6287    2.1745   -1.0902 C   0  0  0  0  0  0  0  0  0  0  0  0
  1  7  1  0
  1  8  1  0
  2 12  1  0
  3 12  2  0
  4 13  2  0
  5  7  2  0
  6  9  1  0
  6 13  1  0
  8  9  1  0
  8 10  1  0
  8 11  1  0
  9 12  1  0
 13 14  1  0
M  END
>  <PUBCHEM_COMPOUND_CID>  (1) 
5231

>  <PUBCHEM_CONFORMER_RMSD>  (1) 
0.6

>  <PUBCHEM_CONFORMER_DIVERSEORDER>  (1) 
1
59
62
47
30
60
26
28
37
57
43
61
42
33
22
45
40
16
20
36
49
15
39
34
17
50
27
54
11
38
48
5
35
58
52
8
2
31
41
32
21
51
25
9
53
6
56
29
13
44
23
24
10
4
55
46
7
18
19
12
14
3

>  <PUBCHEM_MMFF94_PARTIAL_CHARGES>  (1) 
14
1 -0.04
12 0.66
13 0.57
14 0.06
2 -0.65
22 0.37
26 0.5
3 -0.57
4 -0.57
5 -0.16
6 -0.73
7 -0.03
8 0.23
9 0.36

>  <PUBCHEM_EFFECTIVE_ROTOR_COUNT>  (1) 
6

>  <PUBCHEM_PHARMACOPHORE_FEATURES>  (1) 
6
1 2 acceptor
1 3 acceptor
1 4 acceptor
1 6 donor
3 2 3 12 anion
3 8 10 11 hydrophobe

>  <PUBCHEM_HEAVY_ATOM_COUNT>  (1) 
14

>  <PUBCHEM_ATOM_DEF_STEREO_COUNT>  (1) 
0

>  <PUBCHEM_ATOM_UDEF_STEREO_COUNT>  (1) 
1

>  <PUBCHEM_BOND_DEF_STEREO_COUNT>  (1) 
0

>  <PUBCHEM_BOND_UDEF_STEREO_COUNT>  (1) 
0

>  <PUBCHEM_ISOTOPIC_ATOM_COUNT>  (1) 
0

>  <PUBCHEM_COMPONENT_COUNT>  (1) 
1

>  <PUBCHEM_CACTVS_TAUTO_COUNT>  (1) 
2

>  <PUBCHEM_CONFORMER_ID>  (1) 
0000146F00000001

>  <PUBCHEM_MMFF94_ENERGY>  (1) 
35.7757

>  <PUBCHEM_FEATURE_SELFOVERLAP>  (1) 
30.506

>  <PUBCHEM_SHAPE_FINGERPRINT>  (1) 
108231 29 17471578097478762955
12423570 1 15110798066986904231
13024252 1 11893541058626410686
14648413 74 18270129997876753399
15490181 8 18189897689747525194
16945 1 18045220444644281718
19837323 101 17976274735133384524
20510252 161 17830174962654779080
20511035 2 18271519780547621995
207724 885 17980761541227650411
21524375 3 18342182137464659269
228727 97 18124299769330062287
23402539 116 17908698784855278500
23419403 2 16252594369161809613
4175511 71 17904770968232217055
430814 3 18337403698352857469
5084963 1 17824523391510218830
68250623 7 18339658779532125887
68419 9 18058424621632209167

>  <PUBCHEM_SHAPE_MULTIPOLES>  (1) 
258.52
3.75
2.78
1.43
1.29
0.03
-0.16
2.32
-0.27
-0.25
0.72
-0.16
-0.2
-0.78

>  <PUBCHEM_SHAPE_SELFOVERLAP>  (1) 
489.209

>  <PUBCHEM_SHAPE_VOLUME>  (1) 
161.4

>  <PUBCHEM_COORDINATE_TYPE>  (1) 
2
5
10

$$$$
