5240
     RDKit          3D

  5  4  0  0  0  0  0  0  0  0999 V2000
   -2.2593    0.0257   -0.4740 I   0  0  0  0  0  0  0  0  0  0  0  0
    1.1419   -1.1448   -0.2705 O   0  0  0  0  0  0  0  0  0  0  0  0
    1.1415    1.1266   -0.2173 O   0  0  0  0  0  0  0  0  0  0  0  0
   -0.6496   -0.0659    0.8748 C   0  0  0  0  0  0  0  0  0  0  0  0
    0.6256    0.0584    0.0869 C   0  0  0  0  0  0  0  0  0  0  0  0
  1  4  1  0
  2  5  1  0
  3  5  2  0
  4  5  1  0
M  END
>  <PUBCHEM_COMPOUND_CID>  (1) 
5240

>  <PUBCHEM_CONFORMER_RMSD>  (1) 
0.4

>  <PUBCHEM_CONFORMER_DIVERSEORDER>  (1) 
1
3
2

>  <PUBCHEM_MMFF94_PARTIAL_CHARGES>  (1) 
6
1 -0.19
2 -0.65
3 -0.57
4 0.25
5 0.66
8 0.5

>  <PUBCHEM_EFFECTIVE_ROTOR_COUNT>  (1) 
1

>  <PUBCHEM_PHARMACOPHORE_FEATURES>  (1) 
4
1 1 hydrophobe
1 2 acceptor
1 3 acceptor
3 2 3 5 anion

>  <PUBCHEM_HEAVY_ATOM_COUNT>  (1) 
5

>  <PUBCHEM_ATOM_DEF_STEREO_COUNT>  (1) 
0

>  <PUBCHEM_ATOM_UDEF_STEREO_COUNT>  (1) 
0

>  <PUBCHEM_BOND_DEF_STEREO_COUNT>  (1) 
0

>  <PUBCHEM_BOND_UDEF_STEREO_COUNT>  (1) 
0

>  <PUBCHEM_ISOTOPIC_ATOM_COUNT>  (1) 
0

>  <PUBCHEM_COMPONENT_COUNT>  (1) 
1

>  <PUBCHEM_CACTVS_TAUTO_COUNT>  (1) 
1

>  <PUBCHEM_CONFORMER_ID>  (1) 
0000147800000001

>  <PUBCHEM_MMFF94_ENERGY>  (1) 
4.803

>  <PUBCHEM_FEATURE_SELFOVERLAP>  (1) 
20.355

>  <PUBCHEM_SHAPE_FINGERPRINT>  (1) 
139733 1 16153702120464860881
20096714 4 17603577535047146853
24536 1 18337939152278674777
29004967 10 18411697643233194843
5943 1 13712299141151038306

>  <PUBCHEM_SHAPE_MULTIPOLES>  (1) 
103.09
2.65
1.02
0.88
1.52
0.01
-0.11
0.04
0.55
-0.37
0.13
0.21
-0.03
0.04

>  <PUBCHEM_SHAPE_SELFOVERLAP>  (1) 
165.855

>  <PUBCHEM_SHAPE_VOLUME>  (1) 
74.4

>  <PUBCHEM_COORDINATE_TYPE>  (1) 
2
5
10

$$$$
