5241
     RDKit          3D

 19 19  0  0  0  0  0  0  0  0999 V2000
    0.0335    2.0425   -1.3411 I   0  0  0  0  0  0  0  0  0  0  0  0
    2.8660   -3.0823    0.4173 I   0  0  0  0  0  0  0  0  0  0  0  0
   -3.0906   -2.9213    0.3626 I   0  0  0  0  0  0  0  0  0  0  0  0
    4.8550    2.0499    1.3979 O   0  0  0  0  0  0  0  0  0  0  0  0
    4.8995    1.4089   -0.7807 O   0  0  0  0  0  0  0  0  0  0  0  0
   -2.4496    0.0995   -0.6743 N   0  0  0  0  0  0  0  0  0  0  0  0
   -4.0923    1.5148    0.3789 N   0  0  0  0  0  0  0  0  0  0  0  0
    2.4909    0.0129   -0.6441 C   0  0  0  0  0  0  0  0  0  0  0  0
    1.1668   -0.6538   -0.4159 C   0  0  0  0  0  0  0  0  0  0  0  0
    3.0273    0.7391    0.5910 C   0  0  0  0  0  0  0  0  0  0  0  0
   -0.0212    0.0377   -0.6528 C   0  0  0  0  0  0  0  0  0  0  0  0
    1.1279   -1.9726    0.0367 C   0  0  0  0  0  0  0  0  0  0  0  0
   -1.2482   -0.5898   -0.4371 C   0  0  0  0  0  0  0  0  0  0  0  0
   -0.0990   -2.6000    0.2525 C   0  0  0  0  0  0  0  0  0  0  0  0
   -1.2871   -1.9086    0.0155 C   0  0  0  0  0  0  0  0  0  0  0  0
    4.3405    1.4280    0.3085 C   0  0  0  0  0  0  0  0  0  0  0  0
   -2.9361    0.7567    0.3315 C   0  0  0  0  0  0  0  0  0  0  0  0
   -4.9451    1.6578   -0.7925 C   0  0  0  0  0  0  0  0  0  0  0  0
   -4.6380    1.9804    1.6460 C   0  0  0  0  0  0  0  0  0  0  0  0
  1 11  1  0
  2 12  1  0
  3 15  1  0
  4 16  1  0
  5 16  2  0
  6 13  1  0
  6 17  2  0
  7 17  1  0
  7 18  1  0
  7 19  1  0
  8  9  1  0
  8 10  1  0
  9 11  2  0
  9 12  1  0
 10 16  1  0
 11 13  1  0
 12 14  2  0
 13 15  2  0
 14 15  1  0
M  END
>  <PUBCHEM_COMPOUND_CID>  (1) 
5241

>  <PUBCHEM_CONFORMER_RMSD>  (1) 
0.6

>  <PUBCHEM_CONFORMER_DIVERSEORDER>  (1) 
3
12
14
9
6
8
11
16
10
7
5
2
13
4
15
1

>  <PUBCHEM_MMFF94_PARTIAL_CHARGES>  (1) 
22
1 -0.08
10 0.06
11 0.08
12 0.08
13 0.18
14 -0.15
15 0.08
16 0.66
17 0.44
18 0.37
19 0.37
2 -0.08
24 0.15
25 0.06
3 -0.08
32 0.5
4 -0.65
5 -0.57
6 -0.63
7 -0.79
8 0.14
9 -0.14

>  <PUBCHEM_EFFECTIVE_ROTOR_COUNT>  (1) 
5

>  <PUBCHEM_PHARMACOPHORE_FEATURES>  (1) 
8
1 1 hydrophobe
1 2 hydrophobe
1 3 hydrophobe
1 4 acceptor
1 5 acceptor
3 4 5 16 anion
3 6 7 17 cation
6 9 11 12 13 14 15 rings

>  <PUBCHEM_HEAVY_ATOM_COUNT>  (1) 
19

>  <PUBCHEM_ATOM_DEF_STEREO_COUNT>  (1) 
0

>  <PUBCHEM_ATOM_UDEF_STEREO_COUNT>  (1) 
0

>  <PUBCHEM_BOND_DEF_STEREO_COUNT>  (1) 
0

>  <PUBCHEM_BOND_UDEF_STEREO_COUNT>  (1) 
0

>  <PUBCHEM_ISOTOPIC_ATOM_COUNT>  (1) 
0

>  <PUBCHEM_COMPONENT_COUNT>  (1) 
1

>  <PUBCHEM_CACTVS_TAUTO_COUNT>  (1) 
1

>  <PUBCHEM_CONFORMER_ID>  (1) 
0000147900000003

>  <PUBCHEM_MMFF94_ENERGY>  (1) 
54.7264

>  <PUBCHEM_FEATURE_SELFOVERLAP>  (1) 
40.654

>  <PUBCHEM_SHAPE_FINGERPRINT>  (1) 
10382601 240 18260549970275218578
10493431 412 18409733971427383109
1100329 8 18264486183280392114
12390115 104 18340220690250888124
12633257 1 18190161435210372082
12788726 201 17760384570130441214
12930653 34 18338518650325005770
13140716 1 18262235525706422419
14142880 1 18266165300559354455
14178342 30 18334579095846312791
14739800 52 17702644610757203688
15209294 21 18411701006139807497
15238133 3 17345467081352268466
15475509 35 16589157000127728730
18785283 64 18261957332648708450
19784866 140 11167941355674179653
19784866 170 18259990366185924684
204376 136 18408605846780014349
20510252 161 18197500833922951466
20691752 17 17385442116157017734
20739085 24 17973182642063930997
21452121 103 18263916649115010848
21501502 16 18410004433902653734
22182313 1 18339659913372123199
22182937 141 18342462585917533361
2334 1 18334013916821163487
23402539 116 18049993686714280590
23557571 272 18197514002566754006
23558518 356 18260555562450089371
23559900 14 18201158733421539654
25147074 1 18338781364847754862
2748010 2 18334581230419140190
283562 15 18122055674556551491
2838139 119 17489867128924129120
350125 39 18119536676621958813
352729 6 17611758090394664206
474 4 18341325587677989219
5104073 3 18408040701850768914
58807428 26 18187356632518840634
59554788 170 18118125770990185566
59554788 62 17894904126994117167
633830 44 17915467086773574213
7064713 232 18336827588815027988
90316 7 17678154157627576180

>  <PUBCHEM_SHAPE_MULTIPOLES>  (1) 
405.12
9.49
3.99
1.19
0.45
2.45
0.22
-6.95
3.08
-0.25
0.39
0.28
-0.8
-0.03

>  <PUBCHEM_SHAPE_SELFOVERLAP>  (1) 
764.61

>  <PUBCHEM_SHAPE_VOLUME>  (1) 
260.3

>  <PUBCHEM_COORDINATE_TYPE>  (1) 
2
5
10

$$$$
