5249
     RDKit          3D

 33 34  0  0  0  0  0  0  0  0999 V2000
    6.0293    0.0157   -0.6076 O   0  0  0  0  0  0  0  0  0  0  0  0
    1.9021   -0.6883    1.6666 O   0  0  0  0  0  0  0  0  0  0  0  0
   -6.3029   -0.0736   -0.5665 O   0  0  0  0  0  0  0  0  0  0  0  0
    1.1653   -3.9843   -0.0075 O   0  0  0  0  0  0  0  0  0  0  0  0
   -0.3970    1.9680    2.3895 O   0  0  0  0  0  0  0  0  0  0  0  0
   -0.5704   -0.2768    2.7334 O   0  0  0  0  0  0  0  0  0  0  0  0
    2.4322   -2.0249   -0.2534 C   0  0  0  0  0  0  0  0  0  0  0  0
    2.7545   -1.0168    0.6551 C   0  0  0  0  0  0  0  0  0  0  0  0
    4.8501   -0.6538   -0.4909 C   0  0  0  0  0  0  0  0  0  0  0  0
    3.9634   -0.3313    0.5364 C   0  0  0  0  0  0  0  0  0  0  0  0
    3.3190   -2.3474   -1.2808 C   0  0  0  0  0  0  0  0  0  0  0  0
    4.5278   -1.6618   -1.3996 C   0  0  0  0  0  0  0  0  0  0  0  0
    1.1525   -2.7661   -0.1452 C   0  0  0  0  0  0  0  0  0  0  0  0
   -2.6021   -1.9509   -0.2810 C   0  0  0  0  0  0  0  0  0  0  0  0
    6.0548    1.3693   -0.1571 C   0  0  0  0  0  0  0  0  0  0  0  0
   -0.1106   -1.9825   -0.2419 C   0  0  0  0  0  0  0  0  0  0  0  0
   -1.3081   -2.6073   -0.1810 C   0  0  0  0  0  0  0  0  0  0  0  0
   -5.0841   -0.6919   -0.4725 C   0  0  0  0  0  0  0  0  0  0  0  0
   -3.7464   -2.5883    0.1986 C   0  0  0  0  0  0  0  0  0  0  0  0
   -2.6990   -0.6840   -0.8564 C   0  0  0  0  0  0  0  0  0  0  0  0
   -4.9873   -1.9589    0.1028 C   0  0  0  0  0  0  0  0  0  0  0  0
   -3.9399   -0.0544   -0.9522 C   0  0  0  0  0  0  0  0  0  0  0  0
    7.0333    2.1496   -0.9774 C   0  0  0  0  0  0  0  0  0  0  0  0
    8.1086    2.8408   -0.5545 C   0  0  0  0  0  0  0  0  0  0  0  0
   -6.3048    1.3485   -0.5211 C   0  0  0  0  0  0  0  0  0  0  0  0
    1.4208    0.6536    1.6975 C   0  0  0  0  0  0  0  0  0  0  0  0
   -7.5753    1.8257    0.1094 C   0  0  0  0  0  0  0  0  0  0  0  0
   -8.5040    2.6500   -0.4115 C   0  0  0  0  0  0  0  0  0  0  0  0
    8.5588    2.9656    0.8735 C   0  0  0  0  0  0  0  0  0  0  0  0
    8.9781    3.5733   -1.5425 C   0  0  0  0  0  0  0  0  0  0  0  0
   -9.7250    3.0215    0.3883 C   0  0  0  0  0  0  0  0  0  0  0  0
   -8.4502    3.2713   -1.7785 C   0  0  0  0  0  0  0  0  0  0  0  0
    0.0562    0.6905    2.3279 C   0  0  0  0  0  0  0  0  0  0  0  0
  1  9  1  0
  1 15  1  0
  2  8  1  0
  2 26  1  0
  3 18  1  0
  3 25  1  0
  4 13  2  0
  5 33  1  0
  6 33  2  0
  7  8  2  0
  7 11  1  0
  7 13  1  0
  8 10  1  0
  9 10  2  0
  9 12  1  0
 11 12  2  0
 13 16  1  0
 14 17  1  0
 14 19  2  0
 14 20  1  0
 15 23  1  0
 16 17  2  0
 18 21  2  0
 18 22  1  0
 19 21  1  0
 20 22  2  0
 23 24  2  3
 24 29  1  0
 24 30  1  0
 25 27  1  0
 26 33  1  0
 27 28  2  3
 28 31  1  0
 28 32  1  0
M  END
>  <PUBCHEM_COMPOUND_CID>  (1) 
5249

>  <PUBCHEM_CONFORMER_RMSD>  (1) 
1.2

>  <PUBCHEM_CONFORMER_DIVERSEORDER>  (1) 
1
43
49
32
36
19
12
28
10
26
47
25
60
72
11
59
42
69
22
52
48
57
5
35
46
65
67
38
13
55
20
27
40
39
8
51
16
45
6
34
2
44
17
66
14
63
64
30
31
37
9
41
53
33
54
71
29
56
50
58
62
21
61
15
23
4
68
70
24
7
3
18

>  <PUBCHEM_MMFF94_PARTIAL_CHARGES>  (1) 
45
1 -0.36
10 -0.15
11 -0.15
12 -0.15
13 0.47
14 0.03
15 0.42
16 -0.14
17 -0.18
18 0.08
19 -0.15
2 -0.36
20 -0.15
21 -0.15
22 -0.15
23 -0.29
24 -0.28
25 0.42
26 0.34
27 -0.29
28 -0.28
29 0.14
3 -0.36
30 0.14
31 0.14
32 0.14
33 0.66
34 0.15
35 0.15
36 0.15
39 0.15
4 -0.57
40 0.15
41 0.15
42 0.15
43 0.15
44 0.15
45 0.15
5 -0.65
50 0.15
6 -0.57
63 0.5
7 0.09
8 0.08
9 0.08

>  <PUBCHEM_EFFECTIVE_ROTOR_COUNT>  (1) 
12

>  <PUBCHEM_PHARMACOPHORE_FEATURES>  (1) 
11
1 1 acceptor
1 2 acceptor
1 3 acceptor
1 4 acceptor
1 5 acceptor
1 6 acceptor
3 24 29 30 hydrophobe
3 28 31 32 hydrophobe
3 5 6 33 anion
6 14 18 19 20 21 22 rings
6 7 8 9 10 11 12 rings

>  <PUBCHEM_HEAVY_ATOM_COUNT>  (1) 
33

>  <PUBCHEM_ATOM_DEF_STEREO_COUNT>  (1) 
0

>  <PUBCHEM_ATOM_UDEF_STEREO_COUNT>  (1) 
0

>  <PUBCHEM_BOND_DEF_STEREO_COUNT>  (1) 
0

>  <PUBCHEM_BOND_UDEF_STEREO_COUNT>  (1) 
1

>  <PUBCHEM_ISOTOPIC_ATOM_COUNT>  (1) 
0

>  <PUBCHEM_COMPONENT_COUNT>  (1) 
1

>  <PUBCHEM_CACTVS_TAUTO_COUNT>  (1) 
1

>  <PUBCHEM_CONFORMER_ID>  (1) 
0000148100000001

>  <PUBCHEM_MMFF94_ENERGY>  (1) 
100.3506

>  <PUBCHEM_FEATURE_SELFOVERLAP>  (1) 
55.886

>  <PUBCHEM_SHAPE_FINGERPRINT>  (1) 
10280341 67 18270669974562214216
10533779 1 18410282623298149956
11135609 187 18342177804111364882
12124843 1 17989488515488812335
13726171 33 18261110794272563131
13782708 43 10447919590857015015
13911987 19 17988649648463210358
13947947 74 18131349730265571681
14931854 50 17775012301597334682
15183329 4 17203038575154085739
16992727 255 18411139181863696964
16994733 274 18186518838933791536
17852330 53 14201949048486028397
2026 5 9367343730912789781
20982279 24 12391219566377666837
21033648 29 18342162363783492187
21585482 111 18409452501057162452
22002106 203 9007054626229246500
22122407 14 17098064008278853188
22899556 10 18113340774424673043
24771293 8 18261109711803654981
3383291 50 11386628751219933648
3918712 181 18411134723218359844
392239 28 14634870885243820270
406291 66 9439405726548098925
474113 269 9871746876166464205
5718773 13 9655575214717001847
5776283 40 18342454872162116489
5937810 71 18131362920521496785
6201320 82 18336563693361435004
9689198 14 18113623340248189993

>  <PUBCHEM_SHAPE_MULTIPOLES>  (1) 
643.91
28.82
4.79
1.72
12.64
1.32
-1.06
46.7
10.39
-0.63
1.27
-0.67
0.81
0.39

>  <PUBCHEM_SHAPE_SELFOVERLAP>  (1) 
1336.948

>  <PUBCHEM_SHAPE_VOLUME>  (1) 
366

>  <PUBCHEM_COORDINATE_TYPE>  (1) 
2
5
10

$$$$
