5251
     RDKit          3D

  8  7  0  0  0  0  0  0  0  0999 V2000
    3.1307   -0.8944   -0.0011 O   0  0  0  0  0  0  0  0  0  0  0  0
    2.4173    1.2726   -0.0002 O   0  0  0  0  0  0  0  0  0  0  0  0
   -1.5813   -0.3496    0.0003 C   0  0  0  0  0  0  0  0  0  0  0  0
   -2.6893    0.4061   -0.0004 C   0  0  0  0  0  0  0  0  0  0  0  0
   -0.2452    0.2043    0.0002 C   0  0  0  0  0  0  0  0  0  0  0  0
   -4.0738   -0.1541   -0.0003 C   0  0  0  0  0  0  0  0  0  0  0  0
    0.8549   -0.5603    0.0010 C   0  0  0  0  0  0  0  0  0  0  0  0
    2.1867    0.0754    0.0005 C   0  0  0  0  0  0  0  0  0  0  0  0
  1  8  1  0
  2  8  2  0
  3  4  2  0
  3  5  1  0
  4  6  1  0
  5  7  2  0
  7  8  1  0
M  END
>  <PUBCHEM_COMPOUND_CID>  (1) 
5251

>  <PUBCHEM_CONFORMER_RMSD>  (1) 
0.4

>  <PUBCHEM_CONFORMER_DIVERSEORDER>  (1) 
1

>  <PUBCHEM_MMFF94_PARTIAL_CHARGES>  (1) 
13
1 -0.65
10 0.15
11 0.15
15 0.15
16 0.5
2 -0.57
3 -0.15
4 -0.29
5 -0.15
6 0.14
7 -0.14
8 0.71
9 0.15

>  <PUBCHEM_EFFECTIVE_ROTOR_COUNT>  (1) 
2

>  <PUBCHEM_PHARMACOPHORE_FEATURES>  (1) 
4
1 1 acceptor
1 2 acceptor
1 6 hydrophobe
3 1 2 8 anion

>  <PUBCHEM_HEAVY_ATOM_COUNT>  (1) 
8

>  <PUBCHEM_ATOM_DEF_STEREO_COUNT>  (1) 
0

>  <PUBCHEM_ATOM_UDEF_STEREO_COUNT>  (1) 
0

>  <PUBCHEM_BOND_DEF_STEREO_COUNT>  (1) 
0

>  <PUBCHEM_BOND_UDEF_STEREO_COUNT>  (1) 
2

>  <PUBCHEM_ISOTOPIC_ATOM_COUNT>  (1) 
0

>  <PUBCHEM_COMPONENT_COUNT>  (1) 
1

>  <PUBCHEM_CACTVS_TAUTO_COUNT>  (1) 
1

>  <PUBCHEM_CONFORMER_ID>  (1) 
0000148300000001

>  <PUBCHEM_MMFF94_ENERGY>  (1) 
7.5821

>  <PUBCHEM_FEATURE_SELFOVERLAP>  (1) 
20.353

>  <PUBCHEM_SHAPE_FINGERPRINT>  (1) 
11062470 55 8142084264917423959
12932764 1 17385713703828303963
14325111 11 18410574002674257155
14390081 3 18408039615445295985
3248919 1 17274831250438645975
5460574 1 9295288344007243651

>  <PUBCHEM_SHAPE_MULTIPOLES>  (1) 
152.9
6.35
0.92
0.59
2.98
0.11
0
-0.14
0
-0.55
0
0.07
-0.01
0

>  <PUBCHEM_SHAPE_SELFOVERLAP>  (1) 
286.373

>  <PUBCHEM_SHAPE_VOLUME>  (1) 
95.1

>  <PUBCHEM_COORDINATE_TYPE>  (1) 
2
5
10

$$$$
