5270
     RDKit          3D

 15 17  0  0  1  0  0  0  0  0999 V2000
   -2.8078    0.2153    1.1119 O   0  0  0  0  0  0  0  0  0  0  0  0
   -0.6233    0.1233    0.1960 N   0  0  0  0  0  0  0  0  0  0  0  0
    0.7859    1.8325   -0.0554 N   0  0  0  0  0  0  0  0  0  0  0  0
    0.9569   -1.7215    0.2075 N   0  0  0  0  0  0  0  0  0  0  0  0
    3.2501   -0.9258   -0.0458 N   0  0  0  0  0  0  0  0  0  0  0  0
    3.7873    1.3955   -0.2693 N   0  0  0  0  0  0  0  0  0  0  0  0
   -1.8890   -0.5949    0.3581 C   0  0  0  0  0  0  0  0  0  0  0  0
   -2.5641   -0.9520   -0.9608 C   0  0  0  0  0  0  0  0  0  0  0  0
   -3.6518    0.0877   -1.0861 C   0  0  0  0  0  0  0  0  0  0  0  0
   -4.0210    0.3401    0.3581 C   0  0  0  0  0  0  0  0  0  0  0  0
    0.6269   -0.4233    0.1342 C   0  0  0  0  0  0  0  0  0  0  0  0
   -0.4758    1.4800    0.0771 C   0  0  0  0  0  0  0  0  0  0  0  0
    1.4861    0.6527   -0.0213 C   0  0  0  0  0  0  0  0  0  0  0  0
    2.8443    0.3651   -0.1120 C   0  0  0  0  0  0  0  0  0  0  0  0
    2.2953   -1.8749    0.1077 C   0  0  0  0  0  0  0  0  0  0  0  0
  1  7  1  0
  1 10  1  0
  2  7  1  0
  2 11  1  0
  2 12  1  0
  3 12  2  0
  3 13  1  0
  4 11  1  0
  4 15  2  0
  5 14  2  0
  5 15  1  0
  6 14  1  0
  7  8  1  0
  8  9  1  0
  9 10  1  0
 11 13  2  0
 13 14  1  0
M  END
>  <PUBCHEM_COMPOUND_CID>  (1) 
5270

>  <PUBCHEM_CONFORMER_RMSD>  (1) 
0.6

>  <PUBCHEM_CONFORMER_DIVERSEORDER>  (1) 
1
4
3
2
6
8
7
5

>  <PUBCHEM_MMFF94_PARTIAL_CHARGES>  (1) 
17
1 -0.56
10 0.28
11 0.11
12 0.04
13 0.23
14 0.41
15 0.47
2 0.05
23 0.15
24 0.15
25 0.4
26 0.4
3 -0.57
4 -0.57
5 -0.62
6 -0.9
7 0.54

>  <PUBCHEM_EFFECTIVE_ROTOR_COUNT>  (1) 
2

>  <PUBCHEM_PHARMACOPHORE_FEATURES>  (1) 
9
1 1 acceptor
1 6 cation
1 6 donor
3 2 3 12 cation
3 2 4 11 cation
3 4 5 15 cation
5 1 7 8 9 10 rings
5 2 3 11 12 13 rings
6 4 5 11 13 14 15 rings

>  <PUBCHEM_HEAVY_ATOM_COUNT>  (1) 
15

>  <PUBCHEM_ATOM_DEF_STEREO_COUNT>  (1) 
0

>  <PUBCHEM_ATOM_UDEF_STEREO_COUNT>  (1) 
1

>  <PUBCHEM_BOND_DEF_STEREO_COUNT>  (1) 
0

>  <PUBCHEM_BOND_UDEF_STEREO_COUNT>  (1) 
0

>  <PUBCHEM_ISOTOPIC_ATOM_COUNT>  (1) 
0

>  <PUBCHEM_COMPONENT_COUNT>  (1) 
1

>  <PUBCHEM_CACTVS_TAUTO_COUNT>  (1) 
3

>  <PUBCHEM_CONFORMER_ID>  (1) 
0000149600000001

>  <PUBCHEM_MMFF94_ENERGY>  (1) 
28.2655

>  <PUBCHEM_FEATURE_SELFOVERLAP>  (1) 
46.277

>  <PUBCHEM_SHAPE_FINGERPRINT>  (1) 
10219947 1 18409451392506589496
10980938 120 18410853265547716054
11132069 177 18341604932551303122
11401426 45 18412536639514568648
11471102 20 18408319986340949197
11543360 7 15984545636597295944
11578080 2 17629165322293970785
12932764 1 17918270961235146313
13296908 3 18187367614539089803
14144814 61 18343021082000249099
14251717 144 18411975866845913326
14576447 43 18128804421340789783
14993402 34 18060699515447952895
15219456 202 18040151812225747965
15375462 189 18272090491607187299
15442244 35 18124598587163278297
15775835 57 18342459270081260039
16945 1 18409450314459385176
17844478 74 17748832895348594869
18186145 218 17458347394630130819
19422 9 18060139829617221191
200 152 18271799099334653628
20201158 50 18260829280477791491
20279233 1 17748544848776561251
20645477 70 18410289177370264071
21267235 1 18340496577259122199
21501502 16 18267023851753240096
21501925 9 18335973161211596634
23402539 116 18343015632108873716
23402655 69 18411973646906977789
23463225 33 18341332188884551942
23557571 272 16443069391476208487
23559900 14 18198072568066032332
25 1 18333447659816075535
2748010 2 17832996314087202584
528886 8 18410571824825157986
57096353 35 18272087240100750973
581208 293 18412258445971844056
63268167 104 18411980277961721851
74978 22 18272085050099887839
77492 1 17917712392174695043

>  <PUBCHEM_SHAPE_MULTIPOLES>  (1) 
277.92
6.63
1.68
0.83
2
0.08
-0.06
-0.18
-0.65
-1.27
-0.02
0.69
0.04
-0.36

>  <PUBCHEM_SHAPE_SELFOVERLAP>  (1) 
609.385

>  <PUBCHEM_SHAPE_VOLUME>  (1) 
148.5

>  <PUBCHEM_COORDINATE_TYPE>  (1) 
2
5
10

$$$$
