5271
     RDKit          3D

 28 30  0  0  1  0  0  0  0  0999 V2000
    2.1439   -3.6632   -0.1842 O   0  0  0  0  0  0  0  0  0  0  0  0
   -2.5215   -1.3904    1.0214 O   0  0  0  0  0  0  0  0  0  0  0  0
   -0.2024    3.2704    1.0073 O   0  0  0  0  0  0  0  0  0  0  0  0
    1.2818    4.9042    1.5332 O   0  0  0  0  0  0  0  0  0  0  0  0
    0.0092   -0.3958    0.5634 N   0  0  0  0  0  0  0  0  0  0  0  0
   -1.1315    0.1494   -0.0031 N   0  0  0  0  0  0  0  0  0  0  0  0
   -3.3880    0.2797   -0.3819 N   0  0  0  0  0  0  0  0  0  0  0  0
    3.2269   -1.7997   -0.9586 C   0  0  0  0  0  0  0  0  0  0  0  0
    2.2248   -1.3653    0.1344 C   0  0  0  0  0  0  0  0  0  0  0  0
    3.4808   -3.2678   -0.5861 C   0  0  0  0  0  0  0  0  0  0  0  0
    1.9862   -2.6911    0.8776 C   0  0  0  0  0  0  0  0  0  0  0  0
    4.2342   -3.4511    0.7294 C   0  0  0  0  0  0  0  0  0  0  0  0
    3.1884   -3.0272    1.7602 C   0  0  0  0  0  0  0  0  0  0  0  0
    4.4675   -0.9202   -1.0393 C   0  0  0  0  0  0  0  0  0  0  0  0
    0.9342   -0.8234   -0.4749 C   0  0  0  0  0  0  0  0  0  0  0  0
    4.2516    0.5281   -1.3821 C   0  0  0  0  0  0  0  0  0  0  0  0
    4.5322    1.5932   -0.6159 C   0  0  0  0  0  0  0  0  0  0  0  0
    4.2931    3.0117   -1.0446 C   0  0  0  0  0  0  0  0  0  0  0  0
   -2.3757   -0.4184    0.2834 C   0  0  0  0  0  0  0  0  0  0  0  0
    3.3302    3.7788   -0.1279 C   0  0  0  0  0  0  0  0  0  0  0  0
    1.9395    3.1462   -0.0183 C   0  0  0  0  0  0  0  0  0  0  0  0
   -4.7791    0.0267   -0.3573 C   0  0  0  0  0  0  0  0  0  0  0  0
    1.0025    3.8903    0.9083 C   0  0  0  0  0  0  0  0  0  0  0  0
   -5.6481    0.8351   -1.0902 C   0  0  0  0  0  0  0  0  0  0  0  0
   -5.2825   -1.0316    0.3993 C   0  0  0  0  0  0  0  0  0  0  0  0
   -7.0202    0.5855   -1.0665 C   0  0  0  0  0  0  0  0  0  0  0  0
   -6.6546   -1.2813    0.4230 C   0  0  0  0  0  0  0  0  0  0  0  0
   -7.5234   -0.4727   -0.3100 C   0  0  0  0  0  0  0  0  0  0  0  0
  1 10  1  0
  1 11  1  0
  2 19  2  0
  3 23  1  0
  4 23  2  0
  5  6  1  0
  5 15  1  0
  6 19  1  0
  7 19  1  0
  7 22  1  0
  8  9  1  0
  8 10  1  0
  8 14  1  0
  9 11  1  0
  9 15  1  0
 10 12  1  0
 11 13  1  0
 12 13  1  0
 14 16  1  0
 16 17  2  0
 17 18  1  0
 18 20  1  0
 20 21  1  0
 21 23  1  0
 22 24  2  0
 22 25  1  0
 24 26  1  0
 25 27  2  0
 26 28  2  0
 27 28  1  0
M  END
>  <PUBCHEM_COMPOUND_CID>  (1) 
5271

>  <PUBCHEM_CONFORMER_RMSD>  (1) 
1.4

>  <PUBCHEM_CONFORMER_DIVERSEORDER>  (1) 
1
48
49
43
89
54
74
77
12
18
20
36
50
38
23
94
33
15
46
84
9
70
7
42
3
64
85
61
108
51
100
80
19
13
14
30
87
63
45
6
34
24
102
107
25
86
72
103
27
8
99
21
16
47
53
91
95
78
31
90
106
92
11
58
76
81
60
22
35
28
96
57
67
37
59
101
2
79
4
62
10
105
29
83
17
93
68
69
44
71
41
82
98
66
75
52
65
5
55
56
104
26
73
32
88
39
40
97

>  <PUBCHEM_MMFF94_PARTIAL_CHARGES>  (1) 
34
1 -0.56
10 0.28
11 0.28
14 0.14
15 0.27
16 -0.29
17 -0.29
18 0.14
19 0.69
2 -0.57
21 0.06
22 0.12
23 0.66
24 -0.15
25 -0.15
26 -0.15
27 -0.15
28 -0.15
3 -0.65
4 -0.57
41 0.15
42 0.36
43 0.15
44 0.37
5 -0.64
51 0.37
52 0.15
53 0.15
54 0.5
55 0.15
56 0.15
57 0.15
6 -0.42
7 -0.55

>  <PUBCHEM_EFFECTIVE_ROTOR_COUNT>  (1) 
13

>  <PUBCHEM_PHARMACOPHORE_FEATURES>  (1) 
11
1 1 acceptor
1 2 acceptor
1 3 acceptor
1 4 acceptor
1 5 donor
1 6 donor
1 7 donor
3 3 4 23 anion
4 17 18 20 21 hydrophobe
6 22 24 25 26 27 28 rings
7 1 8 9 10 11 12 13 rings

>  <PUBCHEM_HEAVY_ATOM_COUNT>  (1) 
28

>  <PUBCHEM_ATOM_DEF_STEREO_COUNT>  (1) 
0

>  <PUBCHEM_ATOM_UDEF_STEREO_COUNT>  (1) 
4

>  <PUBCHEM_BOND_DEF_STEREO_COUNT>  (1) 
0

>  <PUBCHEM_BOND_UDEF_STEREO_COUNT>  (1) 
1

>  <PUBCHEM_ISOTOPIC_ATOM_COUNT>  (1) 
0

>  <PUBCHEM_COMPONENT_COUNT>  (1) 
1

>  <PUBCHEM_CACTVS_TAUTO_COUNT>  (1) 
3

>  <PUBCHEM_CONFORMER_ID>  (1) 
0000149700000001

>  <PUBCHEM_MMFF94_ENERGY>  (1) 
67.2198

>  <PUBCHEM_FEATURE_SELFOVERLAP>  (1) 
57.42

>  <PUBCHEM_SHAPE_FINGERPRINT>  (1) 
10835480 77 18260828194531346519
11014199 57 17979075981871205638
12516196 113 18340763737468680915
12730499 353 18334583489740125515
12769317 202 18336827593246755572
14675020 138 18198612414952674832
14681490 219 18341899597252046429
14931854 50 18266762280235501476
15183329 4 17750516179274686591
15328829 1 17273162218100773249
15890870 6 18264775535939143820
15950262 2 15576704944211517172
17844677 252 18335705979938697023
18681886 176 18338795599065985410
19026451 147 18337388245514109954
21033648 29 17906449188023024248
21304303 172 17977382729828401066
21344244 78 18265316332250539154
21968339 14 18410287042887354404
23522609 53 17916046641276563385
23559900 14 18412255147853939347
3004659 81 18041280941832849011
3298306 158 18266180728124196336
4073 2 18041005102469987187
5109719 28 18193283111750972329
5265222 85 17757000273451793796
59755656 215 18335983177033574525
70251023 43 18127986221750057278

>  <PUBCHEM_SHAPE_MULTIPOLES>  (1) 
537.81
16.3
5.84
1.27
38.42
4.64
-0.15
-3.22
4.82
-11.18
-2.39
-0.74
0.17
-0.14

>  <PUBCHEM_SHAPE_SELFOVERLAP>  (1) 
1115.182

>  <PUBCHEM_SHAPE_VOLUME>  (1) 
308.1

>  <PUBCHEM_COORDINATE_TYPE>  (1) 
2
5
10

$$$$
