5275
     RDKit          3D

 21 22  0  0  0  0  0  0  0  0999 V2000
    6.3181    2.6088    0.3802 O   0  0  0  0  0  0  0  0  0  0  0  0
   -5.7815    1.4976    0.3311 O   0  0  0  0  0  0  0  0  0  0  0  0
    4.8571    2.2282   -1.3185 O   0  0  0  0  0  0  0  0  0  0  0  0
    1.4740   -1.1802    0.4305 N   0  0  0  0  0  0  0  0  0  0  0  0
    0.1750   -0.4853    0.5493 N   0  0  0  0  0  0  0  0  0  0  0  0
    2.8794   -2.9366   -0.3371 N   0  0  0  0  0  0  0  0  0  0  0  0
    2.6245   -0.5504    1.1154 C   0  0  0  0  0  0  0  0  0  0  0  0
    3.3098    0.4199    0.1573 C   0  0  0  0  0  0  0  0  0  0  0  0
    4.5009    1.1221    0.7993 C   0  0  0  0  0  0  0  0  0  0  0  0
    1.6209   -2.3062   -0.2485 C   0  0  0  0  0  0  0  0  0  0  0  0
   -0.8384   -1.0948   -0.0885 C   0  0  0  0  0  0  0  0  0  0  0  0
   -2.1124   -0.4259    0.0205 C   0  0  0  0  0  0  0  0  0  0  0  0
    0.5307   -2.8791   -0.8823 C   0  0  0  0  0  0  0  0  0  0  0  0
   -0.7129   -2.2704   -0.8033 C   0  0  0  0  0  0  0  0  0  0  0  0
   -2.9788   -0.7341    1.0717 C   0  0  0  0  0  0  0  0  0  0  0  0
   -2.4844    0.5320   -0.9257 C   0  0  0  0  0  0  0  0  0  0  0  0
    5.2189    2.0318   -0.1656 C   0  0  0  0  0  0  0  0  0  0  0  0
   -4.2106   -0.0880    1.1761 C   0  0  0  0  0  0  0  0  0  0  0  0
   -3.7161    1.1781   -0.8211 C   0  0  0  0  0  0  0  0  0  0  0  0
   -4.5793    0.8681    0.2298 C   0  0  0  0  0  0  0  0  0  0  0  0
   -6.0948    2.4643   -0.6706 C   0  0  0  0  0  0  0  0  0  0  0  0
  1 17  1  0
  2 20  1  0
  2 21  1  0
  3 17  2  0
  4  5  2  0
  4  7  1  0
  4 10  1  0
  5 11  1  0
  6 10  1  0
  7  8  1  0
  8  9  1  0
  9 17  1  0
 10 13  2  0
 11 12  1  0
 11 14  2  0
 12 15  2  0
 12 16  1  0
 13 14  1  0
 15 18  1  0
 16 19  2  0
 18 20  2  0
 19 20  1  0
M  CHG  1   4   1
M  END
>  <PUBCHEM_COMPOUND_CID>  (1) 
5275

>  <PUBCHEM_CONFORMER_RMSD>  (1) 
0.8

>  <PUBCHEM_CONFORMER_DIVERSEORDER>  (1) 
1
8
24
29
10
23
25
2
21
28
20
19
15
31
26
9
11
4
14
22
27
32
7
6
17
18
16
3
30
5
12
13

>  <PUBCHEM_MMFF94_PARTIAL_CHARGES>  (1) 
28
1 -0.65
10 0.46
11 0.31
13 -0.15
14 -0.15
15 -0.15
16 -0.15
17 0.66
18 -0.15
19 -0.15
2 -0.36
20 0.08
21 0.28
28 0.15
29 0.15
3 -0.57
30 0.15
31 0.15
32 0.4
33 0.4
34 0.15
35 0.15
36 0.5
4 0.1
5 -0.26
6 -0.9
7 0.49
9 0.06

>  <PUBCHEM_EFFECTIVE_ROTOR_COUNT>  (1) 
6

>  <PUBCHEM_PHARMACOPHORE_FEATURES>  (1) 
9
1 1 acceptor
1 2 acceptor
1 3 acceptor
1 5 acceptor
1 6 donor
3 1 3 17 anion
3 4 6 10 cation
6 12 15 16 18 19 20 rings
6 4 5 10 11 13 14 rings

>  <PUBCHEM_HEAVY_ATOM_COUNT>  (1) 
21

>  <PUBCHEM_ATOM_DEF_STEREO_COUNT>  (1) 
0

>  <PUBCHEM_ATOM_UDEF_STEREO_COUNT>  (1) 
0

>  <PUBCHEM_BOND_DEF_STEREO_COUNT>  (1) 
0

>  <PUBCHEM_BOND_UDEF_STEREO_COUNT>  (1) 
0

>  <PUBCHEM_ISOTOPIC_ATOM_COUNT>  (1) 
0

>  <PUBCHEM_COMPONENT_COUNT>  (1) 
1

>  <PUBCHEM_CACTVS_TAUTO_COUNT>  (1) 
2

>  <PUBCHEM_CONFORMER_ID>  (1) 
0000149B00000001

>  <PUBCHEM_MMFF94_ENERGY>  (1) 
66.3756

>  <PUBCHEM_FEATURE_SELFOVERLAP>  (1) 
45.729

>  <PUBCHEM_SHAPE_FINGERPRINT>  (1) 
105312 117 18200314445829445950
10730089 43 18260546697351987213
11796584 16 11887675030990327198
12390115 104 18200041757818031826
12403259 118 17968943122647678228
12633257 1 15647336402679268076
12788726 201 18050269668438817282
12895836 83 18269552900570143088
12895837 130 17975137849233572332
13540713 5 18269813428970927614
13583140 156 17242992597528084699
14123256 34 8430323458764101952
14251764 38 18122342380972136249
14341114 328 16732989768639808404
14774955 27 18411132515937030853
15342168 16 18412821370007879167
15475509 8 13326854423229660875
15961568 22 18187085040024949701
17834072 32 18339358681988539860
17980427 23 17894632595425755687
1813 80 16769868256003259782
18785283 64 18337105653856886670
204376 136 18342174483484732691
20612939 158 18058731295082039226
21033648 29 16951122860138263861
21344244 78 14418141682048540887
21756936 100 17970062460635550024
22849339 104 15410311352796700429
23559900 14 17605290479637680759
270888 7 18410570721404126328
2838139 119 18411129264647099556
312425 54 16153704314771663616
3472631 163 18341614884159742508
474 4 18272084946868081859
5104073 3 18114188480439572203
5718773 13 9151164342875651473
57724786 102 18337670802273731904
59682541 52 16701750354224940620
60123966 16 18197492913987193567
6327066 14 18411412951437139140
633830 44 18336539401020691831
77188 2 17618785756698122390
7808743 9 18339076115979093512
9999458 23 18264770956734009222

>  <PUBCHEM_SHAPE_MULTIPOLES>  (1) 
399.62
13.75
3.31
1.1
1.21
0.67
-0.03
-16.68
-0.25
3.26
1.07
-0.18
-0.03
0.51

>  <PUBCHEM_SHAPE_SELFOVERLAP>  (1) 
837.618

>  <PUBCHEM_SHAPE_VOLUME>  (1) 
225

>  <PUBCHEM_COORDINATE_TYPE>  (1) 
2
5
10

$$$$
