5276
     RDKit          3D

 25 26  0  0  0  0  0  0  0  0999 V2000
   -2.7181   -2.7460   -0.9473 S   0  0  0  0  0  0  0  0  0  0  0  0
    2.6745   -2.5508    1.1137 O   0  0  0  0  0  0  0  0  0  0  0  0
    0.8218   -3.6923   -0.5933 O   0  0  0  0  0  0  0  0  0  0  0  0
    0.3160    4.4661    1.3033 O   0  0  0  0  0  0  0  0  0  0  0  0
    1.7360    5.1477   -0.3521 N   0  0  0  0  0  0  0  0  0  0  0  0
    2.7872    2.2525   -2.1402 N   0  0  0  0  0  0  0  0  0  0  0  0
   -0.2257   -1.5641   -0.8964 C   0  0  0  0  0  0  0  0  0  0  0  0
    0.7652   -2.3578   -0.3183 C   0  0  0  0  0  0  0  0  0  0  0  0
    0.6560    0.3715    0.2491 C   0  0  0  0  0  0  0  0  0  0  0  0
   -0.2803   -0.1995   -0.6127 C   0  0  0  0  0  0  0  0  0  0  0  0
   -1.2363   -2.1579   -1.8214 C   0  0  0  0  0  0  0  0  0  0  0  0
    1.7016   -1.7866    0.5436 C   0  0  0  0  0  0  0  0  0  0  0  0
    1.6469   -0.4219    0.8273 C   0  0  0  0  0  0  0  0  0  0  0  0
    0.5990    1.7945    0.5450 C   0  0  0  0  0  0  0  0  0  0  0  0
    4.0266   -2.1976    0.8285 C   0  0  0  0  0  0  0  0  0  0  0  0
   -3.3023   -1.2349   -0.1885 C   0  0  0  0  0  0  0  0  0  0  0  0
    1.2442    2.7789   -0.1303 C   0  0  0  0  0  0  0  0  0  0  0  0
   -3.6450   -0.1483   -0.9876 C   0  0  0  0  0  0  0  0  0  0  0  0
   -3.4110   -1.1545    1.1966 C   0  0  0  0  0  0  0  0  0  0  0  0
    4.8841   -3.4439    0.8841 C   0  0  0  0  0  0  0  0  0  0  0  0
   -4.1006    1.0300   -0.3960 C   0  0  0  0  0  0  0  0  0  0  0  0
   -3.8668    0.0238    1.7880 C   0  0  0  0  0  0  0  0  0  0  0  0
   -4.2115    1.1159    0.9917 C   0  0  0  0  0  0  0  0  0  0  0  0
    1.0439    4.1885    0.3524 C   0  0  0  0  0  0  0  0  0  0  0  0
    2.0945    2.4868   -1.2391 C   0  0  0  0  0  0  0  0  0  0  0  0
  1 11  1  0
  1 16  1  0
  2 12  1  0
  2 15  1  0
  3  8  1  0
  4 24  2  0
  5 24  1  0
  6 25  3  0
  7  8  2  0
  7 10  1  0
  7 11  1  0
  8 12  1  0
  9 10  2  0
  9 13  1  0
  9 14  1  0
 12 13  2  0
 14 17  2  0
 15 20  1  0
 16 18  2  0
 16 19  1  0
 17 24  1  0
 17 25  1  0
 18 21  1  0
 19 22  2  0
 21 23  2  0
 22 23  1  0
M  END
>  <PUBCHEM_COMPOUND_CID>  (1) 
5276

>  <PUBCHEM_CONFORMER_RMSD>  (1) 
0.8

>  <PUBCHEM_CONFORMER_DIVERSEORDER>  (1) 
1
10
64
91
174
40
105
13
179
68
161
9
171
143
141
60
27
170
37
98
70
169
19
52
94
93
75
92
65
8
41
67
145
80
85
177
129
172
38
30
176
101
55
184
23
142
73
90
111
166
154
112
175
33
173
156
84
138
125
116
137
106
46
87
159
58
128
47
59
96
26
20
25
36
162
183
45
157
48
113
152
185
133
158
147
121
148
66
15
21
114
72
110
150
119
136
42
22
29
54
102
88
164
163
76
77
126
44
160
165
134
74
146
149
62
39
115
50
104
79
12
5
103
81
71
117
122
131
78
155
132
167
120
53
32
3
130
95
6
118
17
168
108
127
86
123
69
56
83
16
24
57
182
180
11
151
49
107
100
31
89
51
109
144
43
28
61
124
82
97
139
135
181
63
99
35
153
140
18
34
178
2
7
4
14

>  <PUBCHEM_MMFF94_PARTIAL_CHARGES>  (1) 
35
1 -0.33
10 -0.15
11 0.37
12 0.08
13 -0.15
14 -0.18
15 0.28
16 0.1
17 0.08
18 -0.15
19 -0.15
2 -0.36
21 -0.15
22 -0.15
23 -0.15
24 0.62
25 0.49
26 0.15
29 0.15
3 -0.53
30 0.15
33 0.45
34 0.15
35 0.15
39 0.15
4 -0.57
40 0.15
41 0.15
42 0.37
43 0.37
5 -0.8
6 -0.56
7 -0.14
8 0.08
9 0.03

>  <PUBCHEM_EFFECTIVE_ROTOR_COUNT>  (1) 
7

>  <PUBCHEM_PHARMACOPHORE_FEATURES>  (1) 
7
1 2 acceptor
1 3 donor
1 4 acceptor
1 5 donor
1 6 acceptor
6 16 18 19 21 22 23 rings
6 7 8 9 10 12 13 rings

>  <PUBCHEM_HEAVY_ATOM_COUNT>  (1) 
25

>  <PUBCHEM_ATOM_DEF_STEREO_COUNT>  (1) 
0

>  <PUBCHEM_ATOM_UDEF_STEREO_COUNT>  (1) 
0

>  <PUBCHEM_BOND_DEF_STEREO_COUNT>  (1) 
0

>  <PUBCHEM_BOND_UDEF_STEREO_COUNT>  (1) 
1

>  <PUBCHEM_ISOTOPIC_ATOM_COUNT>  (1) 
0

>  <PUBCHEM_COMPONENT_COUNT>  (1) 
1

>  <PUBCHEM_CACTVS_TAUTO_COUNT>  (1) 
6

>  <PUBCHEM_CONFORMER_ID>  (1) 
0000149C00000001

>  <PUBCHEM_MMFF94_ENERGY>  (1) 
75.1803

>  <PUBCHEM_FEATURE_SELFOVERLAP>  (1) 
35.522

>  <PUBCHEM_SHAPE_FINGERPRINT>  (1) 
10074138 170 17323777986534686496
10190108 129 17539718084427233451
10291535 26 16754941788529054312
10940486 97 18130494340769775558
12160290 23 17253953522103542018
12166972 35 18129078118469259087
12422481 6 18192964133546860928
12633257 1 18264502715162869883
12788726 201 17829315891991890914
13004483 165 17974557001306948994
13134695 92 18336541634033959457
13140716 1 18340752763801002402
133893 2 17825359003046581982
14251751 93 17984439687074737757
14251757 17 17270644374595258205
14713325 29 16827292939492320700
14790565 3 18265330797621406688
14955137 171 18339372902330137162
15238133 3 17972893466479429175
17093844 170 17186442339874678785
1813 80 18338802200171957806
20465049 17 17983608400650251349
20600515 1 18200875071794583878
20642791 13 17549254831679885425
20739085 24 18411978040484688570
22182313 1 17267495098832781174
23419403 2 17097529520340070082
23559900 14 18337933676507180363
4409770 3 17759223116584432135
5047190 48 17765444140558506824
513202 73 17689439282681987746
57527573 199 17616817630910192557
5951187 136 13034145495283072961
7097593 13 18410004455598802491
81228 2 17615412458911949225
9981440 41 17544739588168634363

>  <PUBCHEM_SHAPE_MULTIPOLES>  (1) 
490.77
7.45
6.23
1.56
2.43
6.87
0.21
-4.33
-2.21
-6.85
0.11
0.29
0.01
-2.39

>  <PUBCHEM_SHAPE_SELFOVERLAP>  (1) 
1025.41

>  <PUBCHEM_SHAPE_VOLUME>  (1) 
277.6

>  <PUBCHEM_COORDINATE_TYPE>  (1) 
2
5
10

$$$$
