5278
     RDKit          3D

 24 26  0  0  0  0  0  0  0  0999 V2000
   -5.8568   -0.2742   -2.2270 Br  0  0  0  0  0  0  0  0  0  0  0  0
   -2.3676   -1.8035    1.3346 F   0  0  0  0  0  0  0  0  0  0  0  0
    0.1500    2.8959    0.5670 O   0  0  0  0  0  0  0  0  0  0  0  0
    2.4007   -4.2782   -0.2761 O   0  0  0  0  0  0  0  0  0  0  0  0
    1.2222   -2.6704   -1.3764 O   0  0  0  0  0  0  0  0  0  0  0  0
    0.0095    0.6629    1.1816 N   0  0  0  0  0  0  0  0  0  0  0  0
    0.5534   -0.5870    1.2186 N   0  0  0  0  0  0  0  0  0  0  0  0
    2.5121    0.2633    0.0415 C   0  0  0  0  0  0  0  0  0  0  0  0
    1.9581    1.5378    0.0046 C   0  0  0  0  0  0  0  0  0  0  0  0
   -1.3007    0.7700    1.8021 C   0  0  0  0  0  0  0  0  0  0  0  0
    1.7188   -0.7927    0.6927 C   0  0  0  0  0  0  0  0  0  0  0  0
    0.6318    1.7656    0.6053 C   0  0  0  0  0  0  0  0  0  0  0  0
   -2.4090    0.5137    0.8224 C   0  0  0  0  0  0  0  0  0  0  0  0
    2.2746   -2.1957    0.7611 C   0  0  0  0  0  0  0  0  0  0  0  0
    3.7688    0.0294   -0.5244 C   0  0  0  0  0  0  0  0  0  0  0  0
    2.6562    2.5901   -0.5985 C   0  0  0  0  0  0  0  0  0  0  0  0
    4.4650    1.0791   -1.1260 C   0  0  0  0  0  0  0  0  0  0  0  0
    3.9101    2.3569   -1.1631 C   0  0  0  0  0  0  0  0  0  0  0  0
   -2.8861   -0.7793    0.6428 C   0  0  0  0  0  0  0  0  0  0  0  0
   -2.9473    1.5749    0.1037 C   0  0  0  0  0  0  0  0  0  0  0  0
   -3.9159   -1.0147   -0.2682 C   0  0  0  0  0  0  0  0  0  0  0  0
   -3.9772    1.3396   -0.8072 C   0  0  0  0  0  0  0  0  0  0  0  0
    1.8909   -3.0284   -0.4182 C   0  0  0  0  0  0  0  0  0  0  0  0
   -4.4615    0.0449   -0.9931 C   0  0  0  0  0  0  0  0  0  0  0  0
  1 24  1  0
  2 19  1  0
  3 12  2  0
  4 23  1  0
  5 23  2  0
  6  7  1  0
  6 10  1  0
  6 12  1  0
  7 11  2  0
  8  9  2  0
  8 11  1  0
  8 15  1  0
  9 12  1  0
  9 16  1  0
 10 13  1  0
 11 14  1  0
 13 19  2  0
 13 20  1  0
 14 23  1  0
 15 17  2  0
 16 18  2  0
 17 18  1  0
 19 21  1  0
 20 22  2  0
 21 24  2  0
 22 24  1  0
M  END
>  <PUBCHEM_COMPOUND_CID>  (1) 
5278

>  <PUBCHEM_CONFORMER_RMSD>  (1) 
0.8

>  <PUBCHEM_CONFORMER_DIVERSEORDER>  (1) 
1
51
19
14
50
17
42
47
49
35
32
44
27
20
18
38
23
5
41
36
15
48
29
21
39
53
13
24
30
40
4
52
6
22
37
43
46
3
26
45
33
34
10
31
28
11
9
25
16
8
2
7
12

>  <PUBCHEM_MMFF94_PARTIAL_CHARGES>  (1) 
32
1 -0.11
10 0.44
11 0.3
12 0.54
13 -0.14
14 0.12
15 -0.15
16 -0.15
17 -0.15
18 -0.15
19 0.19
2 -0.19
20 -0.15
21 -0.15
22 -0.15
23 0.66
24 0.11
29 0.15
3 -0.57
30 0.15
31 0.15
32 0.15
33 0.15
34 0.15
35 0.15
36 0.5
4 -0.65
5 -0.57
6 -0.3
7 -0.51
8 0.09
9 0.09

>  <PUBCHEM_EFFECTIVE_ROTOR_COUNT>  (1) 
4

>  <PUBCHEM_PHARMACOPHORE_FEATURES>  (1) 
9
1 1 hydrophobe
1 3 acceptor
1 4 acceptor
1 5 acceptor
1 7 acceptor
3 4 5 23 anion
6 13 19 20 21 22 24 rings
6 6 7 8 9 11 12 rings
6 8 9 15 16 17 18 rings

>  <PUBCHEM_HEAVY_ATOM_COUNT>  (1) 
24

>  <PUBCHEM_ATOM_DEF_STEREO_COUNT>  (1) 
0

>  <PUBCHEM_ATOM_UDEF_STEREO_COUNT>  (1) 
0

>  <PUBCHEM_BOND_DEF_STEREO_COUNT>  (1) 
0

>  <PUBCHEM_BOND_UDEF_STEREO_COUNT>  (1) 
0

>  <PUBCHEM_ISOTOPIC_ATOM_COUNT>  (1) 
0

>  <PUBCHEM_COMPONENT_COUNT>  (1) 
1

>  <PUBCHEM_CACTVS_TAUTO_COUNT>  (1) 
1

>  <PUBCHEM_CONFORMER_ID>  (1) 
0000149E00000001

>  <PUBCHEM_MMFF94_ENERGY>  (1) 
59.9338

>  <PUBCHEM_FEATURE_SELFOVERLAP>  (1) 
45.753

>  <PUBCHEM_SHAPE_FINGERPRINT>  (1) 
10498660 4 17095791192657288989
11069576 57 18200864085284221711
11370993 70 18262237832108335982
116883 192 17979634533192728808
12035759 4 18272379641732653644
12553582 1 17761797077785302034
12670546 177 18260542325492056901
12788726 201 17702677531919411017
13083527 12 18192416486462006378
13257819 101 16950558930631456316
13383661 66 17054721319182084071
13911987 19 18193008216706779252
14251751 93 18198067073710584310
14849402 71 9798820706571224054
15163728 17 16661514898711203742
15475509 84 9510920196449862383
15842332 3 17844262734616465393
17138139 8 17629744910881787351
20197701 30 18336828723081493648
20645477 70 18335708238432027321
21033648 29 12541518441020696125
21054139 6 18272926150598816966
21285901 2 17895461549757398741
22393880 68 18411983597845055612
23114952 82 18261110725394953917
23419403 2 14927268363937256744
23557571 272 16443643379632769665
23559900 14 18338227168216401058
238 59 18338794645049410715
26353 1 17757290192649693142
2838139 119 16010170889291696980
3060560 45 18336826498088240796
312425 83 18116141178594003581
3472631 163 16515956069169331469
4028521 119 17385998503495142061
404807 78 17756415325425072407
4280585 95 17978514127082567918
44802255 64 17535214429555385148
46194498 28 18187635865569764589
463206 1 17845352480122119543
53917941 68 17979352294376835084
59682541 52 18267279007956156949
6669772 16 17700964698987905560
9709674 26 18336548218519699563

>  <PUBCHEM_SHAPE_MULTIPOLES>  (1) 
465.01
9.79
3.57
1.57
9.85
2.98
-0.18
-1.53
-6.55
-4.19
-0.58
1.19
-0.01
-0.54

>  <PUBCHEM_SHAPE_SELFOVERLAP>  (1) 
1002.958

>  <PUBCHEM_SHAPE_VOLUME>  (1) 
259.9

>  <PUBCHEM_COORDINATE_TYPE>  (1) 
2
5
10

$$$$
