5299
     RDKit          3D

 18 17  0  0  1  0  0  0  0  0999 V2000
   -0.4962    1.6494    1.4862 O   0  0  0  0  0  0  0  0  0  0  0  0
   -3.0986    0.9601    1.6660 O   0  0  0  0  0  0  0  0  0  0  0  0
   -4.5717   -0.0555   -0.4686 O   0  0  0  0  0  0  0  0  0  0  0  0
   -3.7179   -2.6653   -0.4557 O   0  0  0  0  0  0  0  0  0  0  0  0
    0.4313    2.7808   -1.2812 O   0  0  0  0  0  0  0  0  0  0  0  0
    1.3552   -1.9050   -0.4153 O   0  0  0  0  0  0  0  0  0  0  0  0
    5.2248    0.3952    0.5381 O   0  0  0  0  0  0  0  0  0  0  0  0
    1.3303    0.3912   -0.2968 N   0  0  0  0  0  0  0  0  0  0  0  0
    3.3379   -0.8079    0.0711 N   0  0  0  0  0  0  0  0  0  0  0  0
    4.0200    0.5007    0.2846 N   0  0  0  0  0  0  0  0  0  0  0  0
   -0.9589    0.5727    0.6586 C   0  0  0  0  0  0  0  0  0  0  0  0
   -2.4613    0.7957    0.3916 C   0  0  0  0  0  0  0  0  0  0  0  0
   -0.0746    0.5157   -0.5942 C   0  0  0  0  0  0  0  0  0  0  0  0
   -3.1716   -0.3266   -0.3836 C   0  0  0  0  0  0  0  0  0  0  0  0
   -3.0102   -1.6852    0.2975 C   0  0  0  0  0  0  0  0  0  0  0  0
   -0.2331    1.7607   -1.4464 C   0  0  0  0  0  0  0  0  0  0  0  0
    1.9665   -0.8484   -0.2259 C   0  0  0  0  0  0  0  0  0  0  0  0
    4.1282   -2.0282    0.1739 C   0  0  0  0  0  0  0  0  0  0  0  0
  1 11  1  0
  2 12  1  0
  3 14  1  0
  4 15  1  0
  5 16  2  0
  6 17  2  0
  7 10  2  0
  8 13  1  0
  8 17  1  0
  9 10  1  0
  9 17  1  0
  9 18  1  0
 11 12  1  0
 11 13  1  0
 12 14  1  0
 13 16  1  0
 14 15  1  0
M  END
>  <PUBCHEM_COMPOUND_CID>  (1) 
5299

>  <PUBCHEM_CONFORMER_RMSD>  (1) 
1

>  <PUBCHEM_CONFORMER_DIVERSEORDER>  (1) 
1
133
418
316
130
65
139
377
329
147
167
124
92
383
290
11
29
178
325
366
121
117
301
72
103
253
393
187
397
326
307
45
235
240
427
414
127
435
82
6
327
401
445
155
30
371
57
207
399
281
125
436
9
446
118
183
93
425
63
294
202
272
237
424
180
42
185
375
69
391
400
347
277
286
104
419
203
337
304
298
62
328
261
404
157
210
86
191
407
37
95
105
321
396
219
251
449
249
78
43
428
26
444
346
309
73
211
345
214
60
188
242
361
291
233
420
140
332
87
388
40
386
206
323
165
81
209
338
441
31
98
111
359
23
83
349
102
306
279
101
382
314
252
395
353
169
312
305
344
132
144
451
186
357
285
39
273
97
390
51
385
120
381
247
262
108
274
10
387
370
439
55
220
440
25
224
212
152
201
448
437
215
12
405
384
442
181
244
374
20
380
16
176
232
114
438
443
268
112
160
90
231
282
128
310
213
3
172
158
205
318
257
225
148
194
216
80
343
450
239
341
198
356
367
142
394
423
44
184
299
363
432
218
331
430
243
17
410
99
334
18
422
150
197
238
364
193
8
270
413
54
138
406
46
113
226
170
195
256
145
15
340
259
70
373
153
204
64
245
52
255
297
149
136
284
269
164
333
308
168
223
324
50
179
342
276
156
200
122
107
378
71
287
368
134
412
19
36
199
196
66
311
303
217
53
84
13
389
7
358
171
91
228
447
365
392
348
263
41
110
96
123
266
61
21
4
173
68
302
135
222
49
296
431
58
229
174
146
330
85
154
429
246
208
376
67
335
292
379
159
34
75
89
398
161
32
408
115
236
372
141
434
77
192
56
416
137
426
351
293
162
421
129
38
74
234
315
22
166
258
278
143
131
317
5
14
254
265
79
264
126
88
295
177
402
260
280
221
230
250
189
320
415
2
248
288
319
355
24
28
403
362
182
411
275
175
119
336
339
109
59
322
271
151
241
33
433
35
227
313
283
47
267
360
48
76
409
27
190
116
369
289
100
350
354
94
106
163
300
352
417

>  <PUBCHEM_MMFF94_PARTIAL_CHARGES>  (1) 
24
1 -0.68
10 -0.02
11 0.28
12 0.28
13 0.36
14 0.28
15 0.28
16 0.45
17 0.69
18 0.3
2 -0.68
25 0.37
26 0.06
27 0.4
28 0.4
29 0.4
3 -0.68
30 0.4
4 -0.68
5 -0.57
6 -0.57
7 -0.16
8 -0.73
9 -0.18

>  <PUBCHEM_EFFECTIVE_ROTOR_COUNT>  (1) 
9

>  <PUBCHEM_PHARMACOPHORE_FEATURES>  (1) 
11
1 1 acceptor
1 1 donor
1 2 acceptor
1 2 donor
1 3 acceptor
1 3 donor
1 4 acceptor
1 4 donor
1 5 acceptor
1 6 acceptor
1 8 donor

>  <PUBCHEM_HEAVY_ATOM_COUNT>  (1) 
18

>  <PUBCHEM_ATOM_DEF_STEREO_COUNT>  (1) 
0

>  <PUBCHEM_ATOM_UDEF_STEREO_COUNT>  (1) 
4

>  <PUBCHEM_BOND_DEF_STEREO_COUNT>  (1) 
0

>  <PUBCHEM_BOND_UDEF_STEREO_COUNT>  (1) 
0

>  <PUBCHEM_ISOTOPIC_ATOM_COUNT>  (1) 
0

>  <PUBCHEM_COMPONENT_COUNT>  (1) 
1

>  <PUBCHEM_CACTVS_TAUTO_COUNT>  (1) 
4

>  <PUBCHEM_CONFORMER_ID>  (1) 
000014B300000001

>  <PUBCHEM_MMFF94_ENERGY>  (1) 
40.1576

>  <PUBCHEM_FEATURE_SELFOVERLAP>  (1) 
55.862

>  <PUBCHEM_SHAPE_FINGERPRINT>  (1) 
10366900 7 17346591971979044179
11132069 177 18408886213713165330
11806522 49 18341048630875004951
12553582 1 18116173128306786551
12633257 1 17913777119731411010
12916754 54 18267300929200209350
13549 16 11530480025965013632
14115302 16 18341056302482940381
14181834 199 17970077835838131308
14787075 74 17772185568634089200
15309172 13 13326566320084560437
15415430 10 18335979860748784839
167882 2 17606690385736689332
17834072 14 17821449062483406828
19050596 39 18130508518340014650
19141452 34 18409731725417625333
200 152 18272080565800583557
20671657 53 18261115200966966021
22485316 2 18334572425825243182
232386 152 18060147565343619869
23402539 116 17603579725411772584
23557571 272 18336265626872526268
23559900 14 18272083860367612242
23590187 214 18411983520852103202
25 1 10519991456654412668
298252 57 11458423543996873017
305870 269 10591774159810577085
5283173 99 17677879137464576325
6992083 37 18337124367071112661
81228 2 17461454515743408268
9882013 296 18410572877661760138

>  <PUBCHEM_SHAPE_MULTIPOLES>  (1) 
314.4
8.54
2.45
1.14
5.22
0.3
-0.17
4.07
-1.17
-0.46
0.66
-0.56
-0.67
-0.46

>  <PUBCHEM_SHAPE_SELFOVERLAP>  (1) 
606.772

>  <PUBCHEM_SHAPE_VOLUME>  (1) 
189.3

>  <PUBCHEM_COORDINATE_TYPE>  (1) 
2
5
10

$$$$
