5310
     RDKit          3D

 16 18  0  0  1  0  0  0  0  0999 V2000
    3.5100    1.1171    0.2914 O   0  0  0  0  0  0  0  0  0  0  0  0
    0.3186   -0.5274   -0.1182 C   0  0  0  0  0  0  0  0  0  0  0  0
    0.1451    0.4377    1.0822 C   0  0  0  0  0  0  0  0  0  0  0  0
   -1.3238    0.8418    0.9180 C   0  0  0  0  0  0  0  0  0  0  0  0
   -1.5195    1.0988   -0.6091 C   0  0  0  0  0  0  0  0  0  0  0  0
   -0.5085    0.1262   -1.2705 C   0  0  0  0  0  0  0  0  0  0  0  0
   -0.2933   -1.8825    0.3662 C   0  0  0  0  0  0  0  0  0  0  0  0
   -2.1298   -0.3745    1.4473 C   0  0  0  0  0  0  0  0  0  0  0  0
   -1.7840   -1.7118    0.7605 C   0  0  0  0  0  0  0  0  0  0  0  0
    1.2518    1.4843    1.0531 C   0  0  0  0  0  0  0  0  0  0  0  0
    1.8014   -0.4472   -0.3779 C   0  0  0  0  0  0  0  0  0  0  0  0
    2.3439    0.7537    0.3270 C   0  0  0  0  0  0  0  0  0  0  0  0
   -2.9572    0.7739   -1.0774 C   0  0  0  0  0  0  0  0  0  0  0  0
   -1.2866    2.5615   -1.0358 C   0  0  0  0  0  0  0  0  0  0  0  0
   -0.1637   -3.0546   -0.6107 C   0  0  0  0  0  0  0  0  0  0  0  0
    2.5956   -1.1969   -1.1461 C   0  0  0  0  0  0  0  0  0  0  0  0
  1 12  2  0
  2  3  1  0
  2  6  1  0
  2  7  1  0
  2 11  1  0
  3  4  1  0
  3 10  1  0
  4  5  1  0
  4  8  1  0
  5  6  1  0
  5 13  1  0
  5 14  1  0
  7  9  1  0
  7 15  1  0
  8  9  1  0
 10 12  1  0
 11 12  1  0
 11 16  2  0
M  END
>  <PUBCHEM_COMPOUND_CID>  (1) 
5310

>  <PUBCHEM_CONFORMER_RMSD>  (1) 
0.6

>  <PUBCHEM_CONFORMER_DIVERSEORDER>  (1) 
1
4
2
3

>  <PUBCHEM_MMFF94_PARTIAL_CHARGES>  (1) 
8
1 -0.57
10 0.06
11 -0.12
12 0.49
16 -0.3
2 0.14
37 0.15
38 0.15

>  <PUBCHEM_EFFECTIVE_ROTOR_COUNT>  (1) 
1.2

>  <PUBCHEM_PHARMACOPHORE_FEATURES>  (1) 
4
1 1 acceptor
3 5 13 14 hydrophobe
5 2 3 10 11 12 rings
8 2 3 4 5 6 7 8 9 rings

>  <PUBCHEM_HEAVY_ATOM_COUNT>  (1) 
16

>  <PUBCHEM_ATOM_DEF_STEREO_COUNT>  (1) 
0

>  <PUBCHEM_ATOM_UDEF_STEREO_COUNT>  (1) 
4

>  <PUBCHEM_BOND_DEF_STEREO_COUNT>  (1) 
0

>  <PUBCHEM_BOND_UDEF_STEREO_COUNT>  (1) 
0

>  <PUBCHEM_ISOTOPIC_ATOM_COUNT>  (1) 
0

>  <PUBCHEM_COMPONENT_COUNT>  (1) 
1

>  <PUBCHEM_CACTVS_TAUTO_COUNT>  (1) 
2

>  <PUBCHEM_CONFORMER_ID>  (1) 
000014BE00000001

>  <PUBCHEM_MMFF94_ENERGY>  (1) 
72.587

>  <PUBCHEM_FEATURE_SELFOVERLAP>  (1) 
20.4

>  <PUBCHEM_SHAPE_FINGERPRINT>  (1) 
10863032 1 16988847168158137841
10948715 1 18188194417091922629
12138202 97 18336814394485005918
12423570 1 11030340992787886433
13024252 1 16153975958583615537
13027679 85 17547598988363385182
13299463 15 18196644112575200029
13464514 151 17543627530878433436
13898156 1 16225769609754049936
144361 1 17986933327574583965
14614273 12 18198056091721534886
14761567 1 17906188260269311286
14817 1 16695589996489958297
15490181 7 18337108973423176506
15852999 172 17968929786990437047
15881359 60 17841409725280724403
16945 1 17822021890666391233
19868273 325 18042684094652130941
22802520 49 18190749621858536461
23388829 49 16971961173104837090
23402539 116 18190716752521501061
23419403 2 16909156987638463067
23559900 14 18271818874588243086
25 1 17977667502532581101
2748010 2 18410867576236451443
5084963 1 18059001796411845517
5255222 1 18193577595872450739
63268167 104 17846491500578700264
81228 2 18122067764757367698

>  <PUBCHEM_SHAPE_MULTIPOLES>  (1) 
323.4
3.7
2.57
1.38
1.6
1.13
-0.02
-1.11
0.43
-0.32
0.39
-0.43
-0.15
1.07

>  <PUBCHEM_SHAPE_SELFOVERLAP>  (1) 
694.03

>  <PUBCHEM_SHAPE_VOLUME>  (1) 
184.1

>  <PUBCHEM_COORDINATE_TYPE>  (1) 
2
5
10

$$$$
