5321
     RDKit          3D

 18 19  0  0  0  0  0  0  0  0999 V2000
   -3.1310    2.7137    1.3487 Cl  0  0  0  0  0  0  0  0  0  0  0  0
    0.6570   -2.2626    0.1142 S   0  0  0  0  0  0  0  0  0  0  0  0
    1.4498   -3.0951    1.0112 O   0  0  0  0  0  0  0  0  0  0  0  0
    0.3693   -2.7530   -1.2281 O   0  0  0  0  0  0  0  0  0  0  0  0
   -0.8183   -1.8702    0.9130 N   0  0  0  0  0  0  0  0  0  0  0  0
    3.3634    3.0137   -0.3254 N   0  0  0  0  0  0  0  0  0  0  0  0
   -2.8770    0.0654   -1.4687 N   0  0  0  0  0  0  0  0  0  0  0  0
   -3.1726    1.1742   -0.7387 N   0  0  0  0  0  0  0  0  0  0  0  0
    1.4515   -0.7133   -0.0149 C   0  0  0  0  0  0  0  0  0  0  0  0
    2.2993   -0.2773    1.0034 C   0  0  0  0  0  0  0  0  0  0  0  0
    1.2384    0.0887   -1.1362 C   0  0  0  0  0  0  0  0  0  0  0  0
   -1.6250   -0.8138    0.3639 C   0  0  0  0  0  0  0  0  0  0  0  0
    2.7209    1.7624   -0.2206 C   0  0  0  0  0  0  0  0  0  0  0  0
    2.9339    0.9605    0.9005 C   0  0  0  0  0  0  0  0  0  0  0  0
    1.8731    1.3265   -1.2390 C   0  0  0  0  0  0  0  0  0  0  0  0
   -1.9185    0.3047    1.1118 C   0  0  0  0  0  0  0  0  0  0  0  0
   -2.1160   -0.9029   -0.9157 C   0  0  0  0  0  0  0  0  0  0  0  0
   -2.6982    1.2785    0.5206 C   0  0  0  0  0  0  0  0  0  0  0  0
  1 18  1  0
  2  3  2  0
  2  4  2  0
  2  5  1  0
  2  9  1  0
  5 12  1  0
  6 13  1  0
  7  8  2  0
  7 17  1  0
  8 18  1  0
  9 10  2  0
  9 11  1  0
 10 14  1  0
 11 15  2  0
 12 16  1  0
 12 17  2  0
 13 14  2  0
 13 15  1  0
 16 18  2  0
M  END
>  <PUBCHEM_COMPOUND_CID>  (1) 
5321

>  <PUBCHEM_CONFORMER_RMSD>  (1) 
0.6

>  <PUBCHEM_CONFORMER_DIVERSEORDER>  (1) 
1
22
3
14
5
12
4
19
8
2
13
15
21
6
7
10
20
16
17
18
9
11

>  <PUBCHEM_MMFF94_PARTIAL_CHARGES>  (1) 
27
1 -0.18
10 -0.15
11 -0.15
12 0.2
13 0.1
14 -0.15
15 -0.15
16 -0.15
17 0.16
18 0.49
19 0.42
2 1.45
20 0.15
21 0.15
22 0.15
23 0.15
24 0.15
25 0.15
26 0.4
27 0.4
3 -0.65
4 -0.65
5 -0.76
6 -0.9
7 -0.31
8 -0.31
9 -0.01

>  <PUBCHEM_EFFECTIVE_ROTOR_COUNT>  (1) 
3

>  <PUBCHEM_PHARMACOPHORE_FEATURES>  (1) 
9
1 3 acceptor
1 4 acceptor
1 5 donor
1 6 cation
1 6 donor
1 7 acceptor
1 8 acceptor
6 7 8 12 16 17 18 rings
6 9 10 11 13 14 15 rings

>  <PUBCHEM_HEAVY_ATOM_COUNT>  (1) 
18

>  <PUBCHEM_ATOM_DEF_STEREO_COUNT>  (1) 
0

>  <PUBCHEM_ATOM_UDEF_STEREO_COUNT>  (1) 
0

>  <PUBCHEM_BOND_DEF_STEREO_COUNT>  (1) 
0

>  <PUBCHEM_BOND_UDEF_STEREO_COUNT>  (1) 
0

>  <PUBCHEM_ISOTOPIC_ATOM_COUNT>  (1) 
0

>  <PUBCHEM_COMPONENT_COUNT>  (1) 
1

>  <PUBCHEM_CACTVS_TAUTO_COUNT>  (1) 
2

>  <PUBCHEM_CONFORMER_ID>  (1) 
000014C900000001

>  <PUBCHEM_MMFF94_ENERGY>  (1) 
49.7751

>  <PUBCHEM_FEATURE_SELFOVERLAP>  (1) 
47.285

>  <PUBCHEM_SHAPE_FINGERPRINT>  (1) 
10382601 240 18117006481164741784
11640471 11 18272082777798586997
11725454 13 16341703306088753192
128993 33 18267327428515617837
13132413 78 17979922614235270586
13134695 92 17901093123454957518
13464514 151 18197235667131989110
13618510 140 18409167744266228372
13693222 7 18339648849715040645
13764800 53 18192164886770995043
14713325 29 17033653534301074030
14817 1 12569288505534709118
15775835 57 18337106877368171485
16945 1 18187920625922500226
17357990 137 17698735705186421577
17980427 23 17555704669571489259
18981168 100 18265357073756056843
192875 21 18197192901736804533
20510252 161 17976260462767097314
20671657 1 18337400318134233807
21041028 32 17398683297997000938
21524375 3 18411136982507995630
23419403 2 13991072562069015339
305870 269 18408886235093075802
350125 39 18263098719680392298
474 4 18408881806971426089
49207404 50 18045531688709390545
5939293 188 17762911960989903073
7364860 26 18198909106333285118
7832392 63 17911239421171854219
81228 2 17545900676795741194

>  <PUBCHEM_SHAPE_MULTIPOLES>  (1) 
344.49
5.52
3.37
1.41
1.69
0.35
-0.14
-4.73
0.29
-1.27
0.44
0.31
0
-1.13

>  <PUBCHEM_SHAPE_SELFOVERLAP>  (1) 
712.766

>  <PUBCHEM_SHAPE_VOLUME>  (1) 
197.6

>  <PUBCHEM_COORDINATE_TYPE>  (1) 
2
5
10

$$$$
