5330
     RDKit          3D

 19 20  0  0  0  0  0  0  0  0999 V2000
    1.2505   -2.1539   -0.3090 S   0  0  0  0  0  0  0  0  0  0  0  0
    2.3062   -3.0100    0.2194 O   0  0  0  0  0  0  0  0  0  0  0  0
    0.7449   -2.4100   -1.6521 O   0  0  0  0  0  0  0  0  0  0  0  0
   -4.0044    1.5475    0.0768 O   0  0  0  0  0  0  0  0  0  0  0  0
   -0.0582   -2.1653    0.8116 N   0  0  0  0  0  0  0  0  0  0  0  0
   -1.8498   -1.2543   -0.4293 N   0  0  0  0  0  0  0  0  0  0  0  0
    3.1680    3.4679   -0.0364 N   0  0  0  0  0  0  0  0  0  0  0  0
   -2.8327   -0.3331   -0.6165 N   0  0  0  0  0  0  0  0  0  0  0  0
    1.8141   -0.5034   -0.2291 C   0  0  0  0  0  0  0  0  0  0  0  0
    2.8014   -0.1472    0.6897 C   0  0  0  0  0  0  0  0  0  0  0  0
    1.2762    0.4594   -1.0832 C   0  0  0  0  0  0  0  0  0  0  0  0
    2.7130    2.1346   -0.0999 C   0  0  0  0  0  0  0  0  0  0  0  0
    3.2506    1.1718    0.7544 C   0  0  0  0  0  0  0  0  0  0  0  0
    1.7257    1.7783   -1.0186 C   0  0  0  0  0  0  0  0  0  0  0  0
   -1.0799   -1.1632    0.6692 C   0  0  0  0  0  0  0  0  0  0  0  0
   -1.2246   -0.1871    1.6259 C   0  0  0  0  0  0  0  0  0  0  0  0
   -2.2247    0.7502    1.4355 C   0  0  0  0  0  0  0  0  0  0  0  0
   -3.0052    0.6410    0.3022 C   0  0  0  0  0  0  0  0  0  0  0  0
   -4.7710    1.3767   -1.1106 C   0  0  0  0  0  0  0  0  0  0  0  0
  1  2  2  0
  1  3  2  0
  1  5  1  0
  1  9  1  0
  4 18  1  0
  4 19  1  0
  5 15  1  0
  6  8  2  0
  6 15  1  0
  7 12  1  0
  8 18  1  0
  9 10  2  0
  9 11  1  0
 10 13  1  0
 11 14  2  0
 12 13  2  0
 12 14  1  0
 15 16  2  0
 16 17  1  0
 17 18  2  0
M  END
>  <PUBCHEM_COMPOUND_CID>  (1) 
5330

>  <PUBCHEM_CONFORMER_RMSD>  (1) 
0.6

>  <PUBCHEM_CONFORMER_DIVERSEORDER>  (1) 
1
20
12
13
4
10
3
26
37
27
5
36
23
31
24
21
33
11
28
30
2
29
16
25
6
22
8
14
15
7
19
9
32
34
35
38
18
17

>  <PUBCHEM_MMFF94_PARTIAL_CHARGES>  (1) 
28
1 1.45
10 -0.15
11 -0.15
12 0.1
13 -0.15
14 -0.15
15 0.51
16 -0.15
17 -0.15
18 0.39
19 0.28
2 -0.65
20 0.42
21 0.15
22 0.15
23 0.15
24 0.15
25 0.15
26 0.15
27 0.4
28 0.4
3 -0.65
4 -0.36
5 -0.76
6 -0.31
7 -0.9
8 -0.31
9 -0.01

>  <PUBCHEM_EFFECTIVE_ROTOR_COUNT>  (1) 
4

>  <PUBCHEM_PHARMACOPHORE_FEATURES>  (1) 
8
1 2 acceptor
1 3 acceptor
1 5 donor
1 6 acceptor
1 7 cation
1 7 donor
6 6 8 15 16 17 18 rings
6 9 10 11 12 13 14 rings

>  <PUBCHEM_HEAVY_ATOM_COUNT>  (1) 
19

>  <PUBCHEM_ATOM_DEF_STEREO_COUNT>  (1) 
0

>  <PUBCHEM_ATOM_UDEF_STEREO_COUNT>  (1) 
0

>  <PUBCHEM_BOND_DEF_STEREO_COUNT>  (1) 
0

>  <PUBCHEM_BOND_UDEF_STEREO_COUNT>  (1) 
0

>  <PUBCHEM_ISOTOPIC_ATOM_COUNT>  (1) 
0

>  <PUBCHEM_COMPONENT_COUNT>  (1) 
1

>  <PUBCHEM_CACTVS_TAUTO_COUNT>  (1) 
2

>  <PUBCHEM_CONFORMER_ID>  (1) 
000014D200000001

>  <PUBCHEM_MMFF94_ENERGY>  (1) 
57.344

>  <PUBCHEM_FEATURE_SELFOVERLAP>  (1) 
40.615

>  <PUBCHEM_SHAPE_FINGERPRINT>  (1) 
104564 63 17039812568494868666
11140007 195 14418686996518247129
11370993 70 18338509849947357969
11640471 11 18130787884081464413
12011746 2 18336266726547541134
12633257 1 17604412064346353088
13134695 92 18120375358917273366
14181834 199 18199191680848133702
14250199 8 18270689640900197699
15276787 5 16443056222937823176
15664445 248 14404890393517046435
16945 1 18408329873804304394
17492 54 13972818710869414296
17980427 23 18126252351467538378
18186145 218 18265063427290480587
18981168 100 18193025739814130979
192875 21 18201714029247114184
20510252 161 17692823991909630226
20621476 13 18335133168435253597
21475661 188 17531799139875329101
21524375 3 18198352946960574594
21639500 275 18338240366814327601
21713013 43 12823030723949407025
23419403 2 16302852929856963970
305870 269 18338523035850072730
43658 37 18408881845926837989
474 4 18409727357135341497
49207404 50 18044123274353782009
5939293 188 18336824165725638194
7364860 26 18270685259864945574
7832392 63 17547860650893349393
81228 2 17045163333457926826
84936 182 18343299271026694529
9981440 41 18193830668414673208

>  <PUBCHEM_SHAPE_MULTIPOLES>  (1) 
357.33
6.74
3.21
1.33
6.16
0.19
0.05
-5.15
-0.62
-2.96
-0.51
0.43
0.1
0.33

>  <PUBCHEM_SHAPE_SELFOVERLAP>  (1) 
744.594

>  <PUBCHEM_SHAPE_VOLUME>  (1) 
203.5

>  <PUBCHEM_COORDINATE_TYPE>  (1) 
2
5
10

$$$$
