5351
     RDKit          3D

 25 26  0  0  1  0  0  0  0  0999 V2000
   -0.0013    2.7464    0.0009 S   0  0  0  0  0  0  0  0  0  0  0  0
    6.8653   -2.2470   -0.1119 S   0  0  0  0  0  0  0  0  0  0  0  0
   -6.8721   -2.2413    0.1114 S   0  0  0  0  0  0  0  0  0  0  0  0
   -0.1727    3.4778   -1.2465 O   0  0  0  0  0  0  0  0  0  0  0  0
    0.2114    3.4762    1.2442 O   0  0  0  0  0  0  0  0  0  0  0  0
    7.2877   -2.7718    1.3489 O   0  0  0  0  0  0  0  0  0  0  0  0
   -7.2950   -2.7650   -1.3497 O   0  0  0  0  0  0  0  0  0  0  0  0
    6.2143   -3.3910   -0.8315 O   0  0  0  0  0  0  0  0  0  0  0  0
   -6.2221   -3.3862    0.8303 O   0  0  0  0  0  0  0  0  0  0  0  0
    4.7871   -0.7313   -0.5794 N   0  0  0  0  0  0  0  0  0  0  0  0
   -4.7927   -0.7276    0.5796 N   0  0  0  0  0  0  0  0  0  0  0  0
    1.4264    1.7100   -0.1719 C   0  0  0  0  0  0  0  0  0  0  0  0
   -1.4084    1.7268    0.1707 C   0  0  0  0  0  0  0  0  0  0  0  0
    2.1116    1.3175    0.9619 C   0  0  0  0  0  0  0  0  0  0  0  0
   -2.1154    1.3198   -0.9607 C   0  0  0  0  0  0  0  0  0  0  0  0
    1.8216    1.3184   -1.4366 C   0  0  0  0  0  0  0  0  0  0  0  0
   -1.8255    1.3193    1.4379 C   0  0  0  0  0  0  0  0  0  0  0  0
    3.6517    0.0940   -0.4415 C   0  0  0  0  0  0  0  0  0  0  0  0
   -3.6566    0.0968    0.4421 C   0  0  0  0  0  0  0  0  0  0  0  0
    3.2350    0.5016    0.8259 C   0  0  0  0  0  0  0  0  0  0  0  0
   -3.2395    0.5048   -0.8250 C   0  0  0  0  0  0  0  0  0  0  0  0
    2.9450    0.5029   -1.5727 C   0  0  0  0  0  0  0  0  0  0  0  0
   -2.9496    0.5045    1.5735 C   0  0  0  0  0  0  0  0  0  0  0  0
    5.5491   -1.1802    0.5480 C   0  0  0  0  0  0  0  0  0  0  0  0
   -5.5551   -1.1753   -0.5480 C   0  0  0  0  0  0  0  0  0  0  0  0
  1  4  2  0
  1  5  2  0
  1 12  1  0
  1 13  1  0
  2  6  1  0
  2  8  2  0
  2 24  1  0
  3  7  1  0
  3  9  2  0
  3 25  1  0
 10 18  1  0
 10 24  1  0
 11 19  1  0
 11 25  1  0
 12 14  2  0
 12 16  1  0
 13 15  2  0
 13 17  1  0
 14 20  1  0
 15 21  1  0
 16 22  2  0
 17 23  2  0
 18 20  2  0
 18 22  1  0
 19 21  2  0
 19 23  1  0
M  END
>  <PUBCHEM_COMPOUND_CID>  (1) 
5351

>  <PUBCHEM_CONFORMER_RMSD>  (1) 
0.8

>  <PUBCHEM_CONFORMER_DIVERSEORDER>  (1) 
1
21
23
8
16
17
31
15
7
13
11
25
27
2
14
24
9
29
12
5
26
22
4
19
30
28
6
3
18
10
20

>  <PUBCHEM_MMFF94_PARTIAL_CHARGES>  (1) 
37
1 1.32
10 -0.87
11 -0.87
12 -0.01
13 -0.01
14 -0.15
15 -0.15
16 -0.15
17 -0.15
18 0.1
19 0.1
2 0.36
20 -0.15
21 -0.15
22 -0.15
23 -0.15
24 0.56
25 0.56
26 0.15
27 0.15
28 0.15
29 0.15
3 0.36
30 0.15
31 0.15
32 0.15
33 0.15
34 0.4
35 0.4
4 -0.65
40 0.5
41 0.5
5 -0.65
6 -0.55
7 -0.55
8 -0.5
9 -0.5

>  <PUBCHEM_EFFECTIVE_ROTOR_COUNT>  (1) 
8

>  <PUBCHEM_PHARMACOPHORE_FEATURES>  (1) 
8
1 10 cation
1 10 donor
1 11 cation
1 11 donor
1 4 acceptor
1 5 acceptor
6 12 14 16 18 20 22 rings
6 13 15 17 19 21 23 rings

>  <PUBCHEM_HEAVY_ATOM_COUNT>  (1) 
25

>  <PUBCHEM_ATOM_DEF_STEREO_COUNT>  (1) 
0

>  <PUBCHEM_ATOM_UDEF_STEREO_COUNT>  (1) 
0

>  <PUBCHEM_BOND_DEF_STEREO_COUNT>  (1) 
0

>  <PUBCHEM_BOND_UDEF_STEREO_COUNT>  (1) 
0

>  <PUBCHEM_ISOTOPIC_ATOM_COUNT>  (1) 
0

>  <PUBCHEM_COMPONENT_COUNT>  (1) 
1

>  <PUBCHEM_CACTVS_TAUTO_COUNT>  (1) 
1

>  <PUBCHEM_CONFORMER_ID>  (1) 
000014E700000001

>  <PUBCHEM_MMFF94_ENERGY>  (1) 
60.401

>  <PUBCHEM_FEATURE_SELFOVERLAP>  (1) 
40.612

>  <PUBCHEM_SHAPE_FINGERPRINT>  (1) 
105312 117 10665813082951296856
11135609 201 10159696872373204219
11497681 19 18410581657076080046
12166972 35 18187086177990147364
12633257 1 15482385434628507633
12892183 10 15625675902920830600
12895836 83 8430310230048084437
12895837 130 8862643712290198626
13533116 47 18056201504343576969
13955234 65 17838902890911123825
14251764 75 9079121055061770551
14344974 204 18267585694328740574
14359421 15 17894623743298770747
14765038 42 11167932563812788938
14931854 50 17022897934805204723
15188451 53 17989488550333554221
15519825 34 15554152783973240463
16992828 155 14794703209908309555
19438510 23 10592040258720044022
19784866 240 18410296947588419129
20028762 73 18412265000346087342
20691028 202 9943512012759162730
20775438 99 17684923992221754579
21033648 29 14979404950168111049
21344244 78 16343713170189348681
21756936 100 10375286921977933692
23389318 12 18187372043536608710
23559900 14 17024031652185690853
23569943 247 18408606985733176587
2838139 119 8357955755534485190
32027 91 18266177413090140443
392239 28 15913035534603464847
406291 66 18411134736098454594
465052 167 18269000954559973173
474113 269 18131343129876706071
484985 159 18266458694360922745
5104073 3 17703801348729944929
5718773 13 18410571786128689287
58260988 647 18261962972346801235
59682541 52 14707195600957173896
636775 72 8933841463315357942
636775 8 18270689654592884398
6712543 237 16128661829880356783
7808743 9 9511168630205728164
7970288 3 18410857663447008263
960060 61 17459188654734024205

>  <PUBCHEM_SHAPE_MULTIPOLES>  (1) 
480.86
18.76
4.15
1.44
0.14
1.17
0
31.04
0
-0.03
0
0
-0.27
-0.88

>  <PUBCHEM_SHAPE_SELFOVERLAP>  (1) 
970.847

>  <PUBCHEM_SHAPE_VOLUME>  (1) 
282.2

>  <PUBCHEM_COORDINATE_TYPE>  (1) 
2
5
10

$$$$
