5352
     RDKit          3D

 25 27  0  0  1  0  0  0  0  0999 V2000
   -6.2580    0.2340    0.2436 S   0  0  0  0  0  0  0  0  0  0  0  0
    6.0303   -1.6631   -0.1798 F   0  0  0  0  0  0  0  0  0  0  0  0
    3.1824    4.3208   -0.0789 O   0  0  0  0  0  0  0  0  0  0  0  0
    2.5068    2.7831    1.4554 O   0  0  0  0  0  0  0  0  0  0  0  0
   -6.9088   -0.4107   -0.9485 O   0  0  0  0  0  0  0  0  0  0  0  0
    1.8435    0.9554   -0.5475 C   0  0  0  0  0  0  0  0  0  0  0  0
    2.7210   -0.2056   -0.3115 C   0  0  0  0  0  0  0  0  0  0  0  0
    0.5682    0.5576   -0.3492 C   0  0  0  0  0  0  0  0  0  0  0  0
    0.5565   -0.8587    0.0191 C   0  0  0  0  0  0  0  0  0  0  0  0
    1.9444   -1.3238    0.0364 C   0  0  0  0  0  0  0  0  0  0  0  0
    2.3876    2.2834   -0.9339 C   0  0  0  0  0  0  0  0  0  0  0  0
   -0.5116   -1.6163    0.2950 C   0  0  0  0  0  0  0  0  0  0  0  0
    4.1026   -0.3050   -0.3884 C   0  0  0  0  0  0  0  0  0  0  0  0
    2.5249   -2.5513    0.3114 C   0  0  0  0  0  0  0  0  0  0  0  0
   -0.6802    1.3636   -0.4661 C   0  0  0  0  0  0  0  0  0  0  0  0
   -1.9128   -1.1649    0.2822 C   0  0  0  0  0  0  0  0  0  0  0  0
    4.6977   -1.5392   -0.1127 C   0  0  0  0  0  0  0  0  0  0  0  0
    3.9155   -2.6523    0.2340 C   0  0  0  0  0  0  0  0  0  0  0  0
    2.6825    3.1129    0.2920 C   0  0  0  0  0  0  0  0  0  0  0  0
   -2.4796   -0.6752    1.4485 C   0  0  0  0  0  0  0  0  0  0  0  0
   -2.6398   -1.2379   -0.8956 C   0  0  0  0  0  0  0  0  0  0  0  0
   -4.5512   -0.3148    0.2584 C   0  0  0  0  0  0  0  0  0  0  0  0
   -3.8073   -0.2475    1.4364 C   0  0  0  0  0  0  0  0  0  0  0  0
   -3.9674   -0.8101   -0.9078 C   0  0  0  0  0  0  0  0  0  0  0  0
   -5.9470    1.9657   -0.1924 C   0  0  0  0  0  0  0  0  0  0  0  0
  1  5  2  0
  1 22  1  0
  1 25  1  0
  2 17  1  0
  3 19  1  0
  4 19  2  0
  6  7  1  0
  6  8  2  0
  6 11  1  0
  7 10  2  0
  7 13  1  0
  8  9  1  0
  8 15  1  0
  9 10  1  0
  9 12  2  0
 10 14  1  0
 11 19  1  0
 12 16  1  0
 13 17  2  0
 14 18  2  0
 16 20  2  0
 16 21  1  0
 17 18  1  0
 20 23  1  0
 21 24  2  0
 22 23  2  0
 22 24  1  0
M  END
>  <PUBCHEM_COMPOUND_CID>  (1) 
5352

>  <PUBCHEM_CONFORMER_RMSD>  (1) 
0.8

>  <PUBCHEM_CONFORMER_DIVERSEORDER>  (1) 
2
3
5
1
4

>  <PUBCHEM_MMFF94_PARTIAL_CHARGES>  (1) 
34
1 0.24
10 0.03
11 0.2
12 -0.18
13 -0.15
14 -0.15
15 0.14
16 0.03
17 0.19
18 -0.15
19 0.66
2 -0.19
20 -0.15
21 -0.15
22 0.06
23 -0.15
24 -0.15
25 0.19
28 0.15
29 0.15
3 -0.65
30 0.15
34 0.15
35 0.15
36 0.15
37 0.15
38 0.15
39 0.5
4 -0.57
5 -0.5
6 -0.17
7 0.03
8 -0.14
9 -0.03

>  <PUBCHEM_EFFECTIVE_ROTOR_COUNT>  (1) 
4

>  <PUBCHEM_PHARMACOPHORE_FEATURES>  (1) 
7
1 3 acceptor
1 4 acceptor
1 5 acceptor
3 3 4 19 anion
5 6 7 8 9 10 rings
6 16 20 21 22 23 24 rings
6 7 10 13 14 17 18 rings

>  <PUBCHEM_HEAVY_ATOM_COUNT>  (1) 
25

>  <PUBCHEM_ATOM_DEF_STEREO_COUNT>  (1) 
0

>  <PUBCHEM_ATOM_UDEF_STEREO_COUNT>  (1) 
1

>  <PUBCHEM_BOND_DEF_STEREO_COUNT>  (1) 
0

>  <PUBCHEM_BOND_UDEF_STEREO_COUNT>  (1) 
1

>  <PUBCHEM_ISOTOPIC_ATOM_COUNT>  (1) 
0

>  <PUBCHEM_COMPONENT_COUNT>  (1) 
1

>  <PUBCHEM_CACTVS_TAUTO_COUNT>  (1) 
1

>  <PUBCHEM_CONFORMER_ID>  (1) 
000014E800000002

>  <PUBCHEM_MMFF94_ENERGY>  (1) 
76.4725

>  <PUBCHEM_FEATURE_SELFOVERLAP>  (1) 
35.661

>  <PUBCHEM_SHAPE_FINGERPRINT>  (1) 
10411042 1 18121499055938916230
10595046 47 18270114751481279127
11089746 13 18410292502170446383
11421498 54 11818987474852613958
11456790 92 17896604990400115265
11545043 162 17168723997934790875
12166972 35 18202561752912147947
12236239 1 18131913745940665535
12403260 363 18201442450317983241
12516196 113 18339642244367050026
12549972 3 17895489123088411833
12616971 3 18202848760307979759
13134695 92 18409167697475126054
13140716 1 18191309488621869690
13533116 47 18412828010196201537
13590594 115 18338241448972558808
13878862 14 18336247016874412357
14170010 4 18411416219933248370
14178342 30 17830457541575254530
14294032 229 16986330279317226849
14466204 15 18194120711856524041
14739800 52 17345747633048622072
14848178 96 18196938987671026425
15042514 8 17832140520568769490
15183329 4 18335136437279158439
15527383 91 18334860502066441751
15849732 13 17775001263399814494
15927050 60 17979921832999752334
16087824 20 18120938304744974221
17844677 252 18410019849315154451
17980427 23 17774168894004889593
1813 80 18200607882322101414
18335252 114 18266168441072173365
18681886 176 18202558475509833018
20511986 3 17917135187034784263
20612939 158 18409169934804719735
20832881 197 18261111816380126210
21033648 144 18335692905921273823
21033648 29 17313090965725735199
21033650 10 15266248910797435883
21267235 1 18263370205201521230
21279426 13 17825665543658167191
21304253 13 18341328908267892744
21304303 172 17986682467689515288
2132832 1 18131355176421383217
21452121 103 18337667619861513536
21641784 216 17751382611627137902
21792961 116 17750234704250659294
22122407 14 18267884830215416297
221357 26 18187922842415502855
22182313 1 17823396306002882508
22393880 68 18128264586526438903
23557571 272 14333416623142702019
23559900 14 17894636988618084165
24771293 8 18200014266813532144
2838139 119 18338231558702132325
335352 9 18335423461095503814
350125 39 18335986384825447037
474 4 18195527214888174360
495365 180 18340764956901269840
5104073 3 18262523701496195019
57724786 102 18040723605638645189
5895379 119 16843912813507081168
67856867 119 18272929466303000203
7364860 26 18339361972138885604
7471813 234 18131348600857808728
84936 182 18056765562039760752
9971528 1 18343864407772466970
9981440 41 17763458817901184208

>  <PUBCHEM_SHAPE_MULTIPOLES>  (1) 
493.46
13.45
3.44
1.03
16.09
3.67
-0.2
-1.11
1.08
-5.58
-0.36
0.68
0.11
0.12

>  <PUBCHEM_SHAPE_SELFOVERLAP>  (1) 
1065.044

>  <PUBCHEM_SHAPE_VOLUME>  (1) 
276.4

>  <PUBCHEM_COORDINATE_TYPE>  (1) 
2
5
10

$$$$
