5355
     RDKit          3D

 23 24  0  0  1  0  0  0  0  0999 V2000
    4.9179    1.2515   -0.2893 S   0  0  0  0  0  0  0  0  0  0  0  0
   -0.4417    0.6935    1.8200 O   0  0  0  0  0  0  0  0  0  0  0  0
    0.3585   -2.3795    0.6210 O   0  0  0  0  0  0  0  0  0  0  0  0
    4.6183    2.5357    0.3281 O   0  0  0  0  0  0  0  0  0  0  0  0
    6.1419    0.5466    0.0645 O   0  0  0  0  0  0  0  0  0  0  0  0
   -4.6400    0.6756   -0.2668 N   0  0  0  0  0  0  0  0  0  0  0  0
   -0.8727    0.6404   -0.4565 N   0  0  0  0  0  0  0  0  0  0  0  0
    4.8585    1.4288   -1.9877 N   0  0  0  0  0  0  0  0  0  0  0  0
   -3.2680    0.1513   -0.2187 C   0  0  0  0  0  0  0  0  0  0  0  0
   -3.2482   -0.8487   -1.3767 C   0  0  0  0  0  0  0  0  0  0  0  0
   -4.7017   -1.2645   -1.5748 C   0  0  0  0  0  0  0  0  0  0  0  0
   -5.4824   -0.4954   -0.5220 C   0  0  0  0  0  0  0  0  0  0  0  0
   -2.2029    1.2281   -0.3834 C   0  0  0  0  0  0  0  0  0  0  0  0
   -5.0384    1.3635    0.9553 C   0  0  0  0  0  0  0  0  0  0  0  0
   -6.4659    1.8742    0.8575 C   0  0  0  0  0  0  0  0  0  0  0  0
   -0.1049    0.4250    0.6698 C   0  0  0  0  0  0  0  0  0  0  0  0
    1.2396   -0.1574    0.4244 C   0  0  0  0  0  0  0  0  0  0  0  0
    2.2941    0.7089    0.2136 C   0  0  0  0  0  0  0  0  0  0  0  0
    1.4022   -1.5280    0.4125 C   0  0  0  0  0  0  0  0  0  0  0  0
    3.5643    0.1817   -0.0194 C   0  0  0  0  0  0  0  0  0  0  0  0
    2.6725   -2.0551    0.1792 C   0  0  0  0  0  0  0  0  0  0  0  0
    3.7536   -1.2003   -0.0367 C   0  0  0  0  0  0  0  0  0  0  0  0
    0.6452   -3.7758    0.5860 C   0  0  0  0  0  0  0  0  0  0  0  0
  1  4  2  0
  1  5  2  0
  1  8  1  0
  1 20  1  0
  2 16  2  0
  3 19  1  0
  3 23  1  0
  6  9  1  0
  6 12  1  0
  6 14  1  0
  7 13  1  0
  7 16  1  0
  9 10  1  0
  9 13  1  0
 10 11  1  0
 11 12  1  0
 14 15  1  0
 16 17  1  0
 17 18  2  0
 17 19  1  0
 18 20  1  0
 19 21  2  0
 20 22  2  0
 21 22  1  0
M  END
>  <PUBCHEM_COMPOUND_CID>  (1) 
5355

>  <PUBCHEM_CONFORMER_RMSD>  (1) 
0.8

>  <PUBCHEM_CONFORMER_DIVERSEORDER>  (1) 
2
180
123
97
223
15
226
101
51
110
28
1
211
112
104
202
234
74
38
117
149
55
44
99
225
199
200
161
168
227
52
162
222
189
105
207
3
103
220
145
201
8
118
214
90
198
31
9
187
176
186
208
87
34
49
83
228
140
194
93
232
32
217
100
17
165
157
169
154
148
39
115
71
210
11
177
209
135
126
196
215
172
193
184
85
45
19
58
171
170
24
23
5
224
233
203
236
22
89
119
206
137
26
216
143
46
10
76
205
37
174
127
57
163
190
29
21
235
181
27
153
213
212
13
65
197
230
173
192
35
12
188
185
54
98
40
102
178
94
30
160
4
63
167
18
131
6
121
72
150
109
56
7
36
129
59
175
122
61
91
20
77
68
132
25
231
114
136
106
92
120
60
158
116
78
66
50
80
124
237
16
139
130
191
128
142
144
111
84
221
107
159
14
108
195
95
70
41
47
42
141
53
125
218
179
134
164
151
155
79
62
166
133
204
146
67
33
152
138
86
73
147
48
82
182
81
88
229
96
64
43
113
219
183
69
75
156

>  <PUBCHEM_MMFF94_PARTIAL_CHARGES>  (1) 
26
1 1.45
12 0.27
13 0.3
14 0.27
16 0.54
17 0.09
18 -0.15
19 0.08
2 -0.57
20 -0.01
21 -0.15
22 -0.15
23 0.28
3 -0.36
35 0.37
39 0.15
4 -0.65
40 0.15
41 0.15
42 0.42
43 0.42
5 -0.65
6 -0.81
7 -0.73
8 -0.98
9 0.27

>  <PUBCHEM_EFFECTIVE_ROTOR_COUNT>  (1) 
8

>  <PUBCHEM_PHARMACOPHORE_FEATURES>  (1) 
9
1 2 acceptor
1 3 acceptor
1 4 acceptor
1 5 acceptor
1 6 cation
1 7 donor
1 8 donor
5 6 9 10 11 12 rings
6 17 18 19 20 21 22 rings

>  <PUBCHEM_HEAVY_ATOM_COUNT>  (1) 
23

>  <PUBCHEM_ATOM_DEF_STEREO_COUNT>  (1) 
0

>  <PUBCHEM_ATOM_UDEF_STEREO_COUNT>  (1) 
1

>  <PUBCHEM_BOND_DEF_STEREO_COUNT>  (1) 
0

>  <PUBCHEM_BOND_UDEF_STEREO_COUNT>  (1) 
0

>  <PUBCHEM_ISOTOPIC_ATOM_COUNT>  (1) 
0

>  <PUBCHEM_COMPONENT_COUNT>  (1) 
1

>  <PUBCHEM_CACTVS_TAUTO_COUNT>  (1) 
2

>  <PUBCHEM_CONFORMER_ID>  (1) 
000014EB00000002

>  <PUBCHEM_MMFF94_ENERGY>  (1) 
38.7434

>  <PUBCHEM_FEATURE_SELFOVERLAP>  (1) 
45.689

>  <PUBCHEM_SHAPE_FINGERPRINT>  (1) 
10090160 65 18114178631504652638
11545043 162 14764337272051002975
12107183 9 17405712476666862273
12166972 35 7925620116596706351
12236239 1 18130786746094530956
12616971 3 18338228271849052331
12730499 353 18261121737717442418
12788726 201 17274547499514475673
13631057 29 18270111457188992199
13760787 19 18202280282504697633
14251757 5 17561081453636194151
14251764 18 18131632271517563505
14341114 328 18342171150948657879
14528608 73 18412543240710640620
146900 427 18335701624219438393
14790565 3 18411983559332780961
15537594 2 18201718466523174719
173720 79 17969201482685389242
17980427 23 16733841924147310551
20567600 75 13973969783426883041
20681677 155 18131631184278790955
21054139 6 18340195392624846934
21521721 280 18339645658575393785
23402655 69 18344143687398267159
266924 1 17987525805612808208
2838139 119 17822288011567964484
3004659 81 18130225948125810798
34797466 226 16845293898869506101
351380 180 9583508824886822723
4325135 7 18411132541400905708
4340502 62 18409448098636036046
5104073 3 18407754837586053003
59755656 520 18261668255690842270
6328613 192 18201157664169803417
633830 44 18413386523026653710

>  <PUBCHEM_SHAPE_MULTIPOLES>  (1) 
438.76
14.4
2.73
1.24
7.17
2.13
-0.28
-8.01
-2.13
-1.41
0.54
0.54
-0.1
-2.12

>  <PUBCHEM_SHAPE_SELFOVERLAP>  (1) 
896.847

>  <PUBCHEM_SHAPE_VOLUME>  (1) 
256.8

>  <PUBCHEM_COORDINATE_TYPE>  (1) 
2
5
10

$$$$
