5363
     RDKit          3D

 12 13  0  0  1  0  0  0  0  0999 V2000
    1.5970   -1.9991   -0.5554 O   0  0  0  0  0  0  0  0  0  0  0  0
   -1.4494   -2.3286    0.0341 O   0  0  0  0  0  0  0  0  0  0  0  0
    3.0391    0.5824    0.8727 O   0  0  0  0  0  0  0  0  0  0  0  0
   -0.0439    1.0886    0.0748 N   0  0  0  0  0  0  0  0  0  0  0  0
   -0.1448   -0.3287   -0.2757 C   0  0  0  0  0  0  0  0  0  0  0  0
    1.2255   -0.8314    0.1591 C   0  0  0  0  0  0  0  0  0  0  0  0
   -1.3374   -0.9677    0.4321 C   0  0  0  0  0  0  0  0  0  0  0  0
    2.1580    0.3282   -0.2139 C   0  0  0  0  0  0  0  0  0  0  0  0
    1.2414    1.5328   -0.4601 C   0  0  0  0  0  0  0  0  0  0  0  0
   -1.1984    1.8466   -0.3907 C   0  0  0  0  0  0  0  0  0  0  0  0
   -2.6191   -0.2154    0.0539 C   0  0  0  0  0  0  0  0  0  0  0  0
   -2.4679    1.2925    0.2691 C   0  0  0  0  0  0  0  0  0  0  0  0
  1  6  1  0
  2  7  1  0
  3  8  1  0
  4  5  1  0
  4  9  1  0
  4 10  1  0
  5  6  1  0
  5  7  1  0
  6  8  1  0
  7 11  1  0
  8  9  1  0
 10 12  1  0
 11 12  1  0
M  END
>  <PUBCHEM_COMPOUND_CID>  (1) 
5363

>  <PUBCHEM_CONFORMER_RMSD>  (1) 
0.4

>  <PUBCHEM_CONFORMER_DIVERSEORDER>  (1) 
1
43
35
30
21
14
25
45
24
41
3
23
42
38
17
7
18
32
20
12
31
6
39
36
9
28
44
26
34
19
13
10
15
16
11
27
22
40
37
33
29
2
4
8
5

>  <PUBCHEM_MMFF94_PARTIAL_CHARGES>  (1) 
13
1 -0.68
10 0.27
2 -0.68
25 0.4
26 0.4
27 0.4
3 -0.68
4 -0.81
5 0.27
6 0.28
7 0.28
8 0.28
9 0.27

>  <PUBCHEM_EFFECTIVE_ROTOR_COUNT>  (1) 
1.4

>  <PUBCHEM_PHARMACOPHORE_FEATURES>  (1) 
9
1 1 acceptor
1 1 donor
1 2 acceptor
1 2 donor
1 3 acceptor
1 3 donor
1 4 cation
5 4 5 6 8 9 rings
6 4 5 7 10 11 12 rings

>  <PUBCHEM_HEAVY_ATOM_COUNT>  (1) 
12

>  <PUBCHEM_ATOM_DEF_STEREO_COUNT>  (1) 
0

>  <PUBCHEM_ATOM_UDEF_STEREO_COUNT>  (1) 
4

>  <PUBCHEM_BOND_DEF_STEREO_COUNT>  (1) 
0

>  <PUBCHEM_BOND_UDEF_STEREO_COUNT>  (1) 
0

>  <PUBCHEM_ISOTOPIC_ATOM_COUNT>  (1) 
0

>  <PUBCHEM_COMPONENT_COUNT>  (1) 
1

>  <PUBCHEM_CACTVS_TAUTO_COUNT>  (1) 
1

>  <PUBCHEM_CONFORMER_ID>  (1) 
000014F300000001

>  <PUBCHEM_MMFF94_ENERGY>  (1) 
21.1329

>  <PUBCHEM_FEATURE_SELFOVERLAP>  (1) 
45.752

>  <PUBCHEM_SHAPE_FINGERPRINT>  (1) 
12382932 28 18410855468749914169
12423570 1 17486224605793367950
12524768 44 18337956679671120063
13380535 21 18339942432104345006
13380535 76 18411411804437881551
16945 1 18410299133125288669
18185500 45 18121224435254398919
20201158 50 18410008844954606495
20871998 184 18270121352075866551
21040471 1 18337677420807882860
21501502 16 18339923718873911486
2334 1 17761496189429305877
23402539 116 18340751741735409959
23552423 10 18260557688131028215
23559900 14 18271260335534235764
241688 4 17904208035506209288
2748010 2 18192152585968997349
369184 2 17418091009836030977
5084963 1 18056477257848543881
6333449 129 18411976962078326529
66348 1 17832144918208741391

>  <PUBCHEM_SHAPE_MULTIPOLES>  (1) 
224.37
3.68
2.16
0.72
0.39
0.57
-0.03
-0.41
-0.54
-0.41
0.24
0.17
-0.04
0.18

>  <PUBCHEM_SHAPE_SELFOVERLAP>  (1) 
461.123

>  <PUBCHEM_SHAPE_VOLUME>  (1) 
131

>  <PUBCHEM_COORDINATE_TYPE>  (1) 
2
5
10

$$$$
