5374
     RDKit          3D

 14 15  0  0  1  0  0  0  0  0999 V2000
    2.9624    1.2037   -0.2255 S   0  0  0  0  0  0  0  0  0  0  0  0
   -1.7966    0.5479    0.1866 N   0  0  0  0  0  0  0  0  0  0  0  0
    2.3295   -1.2771    0.1057 N   0  0  0  0  0  0  0  0  0  0  0  0
    4.5741   -0.8894   -0.5262 N   0  0  0  0  0  0  0  0  0  0  0  0
   -0.9585    1.6353   -0.3599 C   0  0  0  0  0  0  0  0  0  0  0  0
   -1.2693   -0.7997   -0.1127 C   0  0  0  0  0  0  0  0  0  0  0  0
    0.3258    1.9012    0.4373 C   0  0  0  0  0  0  0  0  0  0  0  0
   -0.0665   -1.2074    0.7474 C   0  0  0  0  0  0  0  0  0  0  0  0
    1.3535    0.8425    0.2288 C   0  0  0  0  0  0  0  0  0  0  0  0
    1.1968   -0.5237    0.3604 C   0  0  0  0  0  0  0  0  0  0  0  0
   -3.1535    0.6647   -0.3650 C   0  0  0  0  0  0  0  0  0  0  0  0
    3.3184   -0.4729   -0.2131 C   0  0  0  0  0  0  0  0  0  0  0  0
   -4.0791   -0.3534    0.2265 C   0  0  0  0  0  0  0  0  0  0  0  0
   -4.7370   -1.2718   -0.4903 C   0  0  0  0  0  0  0  0  0  0  0  0
  1  9  1  0
  1 12  1  0
  2  5  1  0
  2  6  1  0
  2 11  1  0
  3 10  1  0
  3 12  2  0
  4 12  1  0
  5  7  1  0
  6  8  1  0
  7  9  1  0
  8 10  1  0
  9 10  2  0
 11 13  1  0
 13 14  2  0
M  END
>  <PUBCHEM_COMPOUND_CID>  (1) 
5374

>  <PUBCHEM_CONFORMER_RMSD>  (1) 
0.6

>  <PUBCHEM_CONFORMER_DIVERSEORDER>  (1) 
2
13
15
16
19
9
10
21
1
20
7
14
4
18
3
17
8
6
11
5
12

>  <PUBCHEM_MMFF94_PARTIAL_CHARGES>  (1) 
19
1 -0.08
10 0.05
11 0.41
12 0.46
13 -0.29
14 -0.3
2 -0.81
25 0.15
26 0.4
27 0.4
28 0.15
29 0.15
3 -0.57
4 -0.88
5 0.27
6 0.27
7 0.18
8 0.18
9 -0.14

>  <PUBCHEM_EFFECTIVE_ROTOR_COUNT>  (1) 
3

>  <PUBCHEM_PHARMACOPHORE_FEATURES>  (1) 
6
1 14 hydrophobe
1 2 cation
1 4 donor
3 3 4 12 cation
5 1 3 9 10 12 rings
7 2 5 6 7 8 9 10 rings

>  <PUBCHEM_HEAVY_ATOM_COUNT>  (1) 
14

>  <PUBCHEM_ATOM_DEF_STEREO_COUNT>  (1) 
0

>  <PUBCHEM_ATOM_UDEF_STEREO_COUNT>  (1) 
0

>  <PUBCHEM_BOND_DEF_STEREO_COUNT>  (1) 
0

>  <PUBCHEM_BOND_UDEF_STEREO_COUNT>  (1) 
0

>  <PUBCHEM_ISOTOPIC_ATOM_COUNT>  (1) 
0

>  <PUBCHEM_COMPONENT_COUNT>  (1) 
1

>  <PUBCHEM_CACTVS_TAUTO_COUNT>  (1) 
2

>  <PUBCHEM_CONFORMER_ID>  (1) 
000014FE00000002

>  <PUBCHEM_MMFF94_ENERGY>  (1) 
22.7598

>  <PUBCHEM_FEATURE_SELFOVERLAP>  (1) 
30.472

>  <PUBCHEM_SHAPE_FINGERPRINT>  (1) 
11132069 177 18411410739343865145
11471102 20 18408885174125364364
11543360 7 15792021107565808755
11806522 49 18410854395118931041
12032990 46 18411702088624481953
12500047 106 8069736378187266213
13675066 3 11240002278263892695
13690532 89 18411982459583672395
13862211 1 18409443683077762242
14115302 16 17968387834926456270
14251717 144 18337387244622835485
14252887 29 17775573026509744550
14576447 43 18411411839019516887
14911166 2 18333733519885836614
14993402 34 18412823599317529687
15196674 1 18410573989531100317
15536298 74 18343017838962531873
16945 1 18335700499307219664
18186145 218 18113894953252027637
19422 9 18343588429931830521
200 152 18273496771073671787
20201158 50 18410296882805012130
20281475 54 18339641140206494505
20645477 70 18341894112361908247
20871999 31 18187363199291714645
21267235 1 18411145739930637323
221490 88 18192153917651738043
23402539 116 18411695452799886998
23402655 69 18409164385807336549
23559900 14 18410856560684197058
2748010 2 18192157220444301624
2871803 45 18260821610014120087
3286 77 17846495945695739584
465052 167 18129947905207797535
4990 188 18343025475440641198
5104073 3 18411699880884906585
537710 114 18336834176999214021
69090 78 18342173401179243919
7364860 26 18199465648180053464
83771 10 18343582945195179565
94968 8 18410290341395610577

>  <PUBCHEM_SHAPE_MULTIPOLES>  (1) 
277.02
7.95
1.75
0.74
3.62
0.44
-0.02
-2.93
1.7
-0.27
-0.03
0.02
-0.02
0.04

>  <PUBCHEM_SHAPE_SELFOVERLAP>  (1) 
557.42

>  <PUBCHEM_SHAPE_VOLUME>  (1) 
163.4

>  <PUBCHEM_COORDINATE_TYPE>  (1) 
2
5
10

$$$$
