5389
     RDKit          3D

 38 42  0  0  0  0  0  0  0  0999 V2000
   -6.2372    1.9298    0.1341 O   0  0  0  0  0  0  0  0  0  0  0  0
    6.2369   -1.9297    0.1352 O   0  0  0  0  0  0  0  0  0  0  0  0
   -0.6643   -2.5880    0.1347 O   0  0  0  0  0  0  0  0  0  0  0  0
    0.6648    2.5885    0.1373 O   0  0  0  0  0  0  0  0  0  0  0  0
   -9.9639   -0.0721    0.1201 N   0  0  0  0  0  0  0  0  0  0  0  0
    9.9640    0.0716    0.1198 N   0  0  0  0  0  0  0  0  0  0  0  0
   -5.0953   -0.1278    0.1339 N   0  0  0  0  0  0  0  0  0  0  0  0
    5.0953    0.1282    0.1350 N   0  0  0  0  0  0  0  0  0  0  0  0
  -11.1144    0.6801    0.6403 C   0  0  0  0  0  0  0  0  0  0  0  0
  -10.2267   -0.5739   -1.2360 C   0  0  0  0  0  0  0  0  0  0  0  0
   10.2264    0.5732   -1.2364 C   0  0  0  0  0  0  0  0  0  0  0  0
   11.1145   -0.6807    0.6398 C   0  0  0  0  0  0  0  0  0  0  0  0
  -12.3711   -0.1908    0.6787 C   0  0  0  0  0  0  0  0  0  0  0  0
  -11.4544   -1.4859   -1.2589 C   0  0  0  0  0  0  0  0  0  0  0  0
   11.4542    1.4850   -1.2597 C   0  0  0  0  0  0  0  0  0  0  0  0
   12.3713    0.1900    0.6778 C   0  0  0  0  0  0  0  0  0  0  0  0
  -12.6807   -0.7789   -0.6932 C   0  0  0  0  0  0  0  0  0  0  0  0
   12.6807    0.7778   -0.6943 C   0  0  0  0  0  0  0  0  0  0  0  0
   -8.7607    0.7594    0.1337 C   0  0  0  0  0  0  0  0  0  0  0  0
    8.7606   -0.7598    0.1340 C   0  0  0  0  0  0  0  0  0  0  0  0
   -7.5113   -0.1155    0.1339 C   0  0  0  0  0  0  0  0  0  0  0  0
    7.5113    0.1154    0.1343 C   0  0  0  0  0  0  0  0  0  0  0  0
   -6.2271    0.7033    0.1337 C   0  0  0  0  0  0  0  0  0  0  0  0
    6.2270   -0.7032    0.1347 C   0  0  0  0  0  0  0  0  0  0  0  0
   -3.7507    0.2452    0.1339 C   0  0  0  0  0  0  0  0  0  0  0  0
    3.7507   -0.2446    0.1353 C   0  0  0  0  0  0  0  0  0  0  0  0
   -1.4068   -0.3589    0.1345 C   0  0  0  0  0  0  0  0  0  0  0  0
    1.4068    0.3596    0.1353 C   0  0  0  0  0  0  0  0  0  0  0  0
   -1.0591    0.9936    0.1346 C   0  0  0  0  0  0  0  0  0  0  0  0
    1.0591   -0.9929    0.1352 C   0  0  0  0  0  0  0  0  0  0  0  0
   -2.7559   -0.7331    0.1343 C   0  0  0  0  0  0  0  0  0  0  0  0
    2.7560    0.7336    0.1353 C   0  0  0  0  0  0  0  0  0  0  0  0
   -0.3604   -1.4016    0.1347 C   0  0  0  0  0  0  0  0  0  0  0  0
    0.3604    1.4022    0.1353 C   0  0  0  0  0  0  0  0  0  0  0  0
   -3.4038    1.5947    0.1337 C   0  0  0  0  0  0  0  0  0  0  0  0
    3.4038   -1.5942    0.1355 C   0  0  0  0  0  0  0  0  0  0  0  0
   -2.0606    1.9719    0.1341 C   0  0  0  0  0  0  0  0  0  0  0  0
    2.0605   -1.9714    0.1355 C   0  0  0  0  0  0  0  0  0  0  0  0
  1 23  2  0
  2 24  2  0
  3 33  2  0
  4 34  2  0
  5  9  1  0
  5 10  1  0
  5 19  1  0
  6 11  1  0
  6 12  1  0
  6 20  1  0
  7 23  1  0
  7 25  1  0
  8 24  1  0
  8 26  1  0
  9 13  1  0
 10 14  1  0
 11 15  1  0
 12 16  1  0
 13 17  1  0
 14 17  1  0
 15 18  1  0
 16 18  1  0
 19 21  1  0
 20 22  1  0
 21 23  1  0
 22 24  1  0
 25 31  2  0
 25 35  1  0
 26 32  2  0
 26 36  1  0
 27 29  2  0
 27 31  1  0
 27 33  1  0
 28 30  2  0
 28 32  1  0
 28 34  1  0
 29 34  1  0
 29 37  1  0
 30 33  1  0
 30 38  1  0
 35 37  2  0
 36 38  2  0
M  END
>  <PUBCHEM_COMPOUND_CID>  (1) 
5389

>  <PUBCHEM_CONFORMER_RMSD>  (1) 
1.4

>  <PUBCHEM_CONFORMER_DIVERSEORDER>  (1) 
1
8
25
15
13
4
22
17
16
12
11
2
23
19
14
7
10
24
5
20
6
3
18
26
21
9

>  <PUBCHEM_MMFF94_PARTIAL_CHARGES>  (1) 
40
1 -0.57
10 0.27
11 0.27
12 0.27
19 0.27
2 -0.57
20 0.27
21 0.06
22 0.06
23 0.57
24 0.57
25 0.12
26 0.12
27 0.09
28 0.09
29 0.09
3 -0.57
30 0.09
31 -0.15
32 -0.15
33 0.4
34 0.4
35 -0.15
36 -0.15
37 -0.15
38 -0.15
4 -0.57
5 -0.81
6 -0.81
67 0.37
68 0.37
69 0.15
7 -0.55
70 0.15
71 0.15
72 0.15
73 0.15
74 0.15
8 -0.55
9 0.27

>  <PUBCHEM_EFFECTIVE_ROTOR_COUNT>  (1) 
12.4

>  <PUBCHEM_PHARMACOPHORE_FEATURES>  (1) 
13
1 1 acceptor
1 2 acceptor
1 3 acceptor
1 4 acceptor
1 5 cation
1 6 cation
1 7 donor
1 8 donor
6 25 27 29 31 35 37 rings
6 26 28 30 32 36 38 rings
6 27 28 29 30 33 34 rings
6 5 9 10 13 14 17 rings
6 6 11 12 15 16 18 rings

>  <PUBCHEM_HEAVY_ATOM_COUNT>  (1) 
38

>  <PUBCHEM_ATOM_DEF_STEREO_COUNT>  (1) 
0

>  <PUBCHEM_ATOM_UDEF_STEREO_COUNT>  (1) 
0

>  <PUBCHEM_BOND_DEF_STEREO_COUNT>  (1) 
0

>  <PUBCHEM_BOND_UDEF_STEREO_COUNT>  (1) 
0

>  <PUBCHEM_ISOTOPIC_ATOM_COUNT>  (1) 
0

>  <PUBCHEM_COMPONENT_COUNT>  (1) 
1

>  <PUBCHEM_CACTVS_TAUTO_COUNT>  (1) 
21

>  <PUBCHEM_CONFORMER_ID>  (1) 
0000150D00000001

>  <PUBCHEM_MMFF94_ENERGY>  (1) 
80.351

>  <PUBCHEM_FEATURE_SELFOVERLAP>  (1) 
66.015

>  <PUBCHEM_SHAPE_FINGERPRINT>  (1) 
10580692 12 18271807895390785163
12013929 94 18343302565999424041
12559415 90 16588017992043826252
12664476 115 18260828203137494892
12741549 16 13912325685765187990
14251764 46 18410292505879773193
14251920 1 18413388730628884770
14251920 17 18408604773243821220
14344974 52 17989201577534980210
15061470 23 18040433266387388645
15890870 6 18408323276470969034
16728433 110 18408039628051064796
21057603 130 18408320009271864639
21102433 48 18411413999166988418
232437 2 18272087193631459843
23581129 1 18409449184756236418
3092352 35 15554448500712876454
335352 9 18410573993741385837
4874694 18 15936131850097228818
57303763 39 17704066344212669727
9663363 56 15574432124336695751

>  <PUBCHEM_SHAPE_MULTIPOLES>  (1) 
738.62
56.82
1.84
0.86
0
0
0.2
-0.02
9.57
0
0.02
0
0
-2.32

>  <PUBCHEM_SHAPE_SELFOVERLAP>  (1) 
1582.595

>  <PUBCHEM_SHAPE_VOLUME>  (1) 
405.3

>  <PUBCHEM_COORDINATE_TYPE>  (1) 
2
5
10

$$$$
