5395
     RDKit          3D

 12 12  0  0  0  0  0  0  0  0999 V2000
    0.0009   -3.0753   -0.4308 O   0  0  0  0  0  0  0  0  0  0  0  0
   -0.0004    1.3791   -1.6011 O   0  0  0  0  0  0  0  0  0  0  0  0
   -0.0003    1.1614   -0.1558 N   0  0  0  0  0  0  0  0  0  0  0  0
   -1.2740    0.4551    0.1660 C   0  0  0  0  0  0  0  0  0  0  0  0
    1.2738    0.4557    0.1660 C   0  0  0  0  0  0  0  0  0  0  0  0
   -1.2598   -1.0225   -0.2912 C   0  0  0  0  0  0  0  0  0  0  0  0
    1.2602   -1.0217   -0.2918 C   0  0  0  0  0  0  0  0  0  0  0  0
    0.0006   -1.7705    0.1438 C   0  0  0  0  0  0  0  0  0  0  0  0
   -1.5891    0.5421    1.6773 C   0  0  0  0  0  0  0  0  0  0  0  0
   -2.4616    1.1764   -0.5299 C   0  0  0  0  0  0  0  0  0  0  0  0
    1.5888    0.5422    1.6772 C   0  0  0  0  0  0  0  0  0  0  0  0
    2.4610    1.1779   -0.5295 C   0  0  0  0  0  0  0  0  0  0  0  0
  1  8  1  0
  2  3  1  0
  3  4  1  0
  3  5  1  0
  4  6  1  0
  4  9  1  0
  4 10  1  0
  5  7  1  0
  5 11  1  0
  5 12  1  0
  6  8  1  0
  7  8  1  0
M  END
>  <PUBCHEM_COMPOUND_CID>  (1) 
5395

>  <PUBCHEM_CONFORMER_RMSD>  (1) 
0.4

>  <PUBCHEM_CONFORMER_DIVERSEORDER>  (1) 
1
3
4
5
2
6

>  <PUBCHEM_MMFF94_PARTIAL_CHARGES>  (1) 
8
1 -0.68
2 -0.3
3 -0.64
30 0.4
31 0.4
4 0.27
5 0.27
8 0.28

>  <PUBCHEM_EFFECTIVE_ROTOR_COUNT>  (1) 
1.2

>  <PUBCHEM_PHARMACOPHORE_FEATURES>  (1) 
6
1 1 acceptor
1 1 donor
1 2 anion
3 4 9 10 hydrophobe
3 5 11 12 hydrophobe
6 3 4 5 6 7 8 rings

>  <PUBCHEM_HEAVY_ATOM_COUNT>  (1) 
12

>  <PUBCHEM_ATOM_DEF_STEREO_COUNT>  (1) 
0

>  <PUBCHEM_ATOM_UDEF_STEREO_COUNT>  (1) 
0

>  <PUBCHEM_BOND_DEF_STEREO_COUNT>  (1) 
0

>  <PUBCHEM_BOND_UDEF_STEREO_COUNT>  (1) 
0

>  <PUBCHEM_ISOTOPIC_ATOM_COUNT>  (1) 
0

>  <PUBCHEM_COMPONENT_COUNT>  (1) 
1

>  <PUBCHEM_CACTVS_TAUTO_COUNT>  (1) 
1

>  <PUBCHEM_CONFORMER_ID>  (1) 
0000151300000001

>  <PUBCHEM_MMFF94_ENERGY>  (1) 
25.3393

>  <PUBCHEM_FEATURE_SELFOVERLAP>  (1) 
30.446

>  <PUBCHEM_SHAPE_FINGERPRINT>  (1) 
12423570 1 9481457343379045392
12524768 44 17896888655472724389
13024252 1 15070832644678386472
137420 1 8208213584242196471
14817 1 16373296655346412899
16945 1 17060620001142268328
18185500 45 17326331524511363590
21040471 1 18339916103875666744
21922407 69 17169256242676285440
241688 4 18410293579621850683
2748010 2 18409453578534413911
5084963 1 18343865519477640268
528886 8 18335986389172784876

>  <PUBCHEM_SHAPE_MULTIPOLES>  (1) 
230.23
2.7
2.22
1.34
0
2.05
0.43
-1.33
0.01
0
-0.5
0
-0.54
0

>  <PUBCHEM_SHAPE_SELFOVERLAP>  (1) 
450.869

>  <PUBCHEM_SHAPE_VOLUME>  (1) 
140.2

>  <PUBCHEM_COORDINATE_TYPE>  (1) 
2
5
10

$$$$
