5400
     RDKit          3D

 14 15  0  0  1  0  0  0  0  0999 V2000
    0.0073   -2.4680   -0.1110 O   0  0  0  0  0  0  0  0  0  0  0  0
    3.1946    0.5613    0.2117 N   0  0  0  0  0  0  0  0  0  0  0  0
    0.9866   -0.2557   -0.4886 C   0  0  0  0  0  0  0  0  0  0  0  0
    0.3050    1.1273   -0.3732 C   0  0  0  0  0  0  0  0  0  0  0  0
    2.1484   -0.4179    0.4775 C   0  0  0  0  0  0  0  0  0  0  0  0
   -1.1388    0.8057   -0.1507 C   0  0  0  0  0  0  0  0  0  0  0  0
   -0.1148   -1.2592   -0.1966 C   0  0  0  0  0  0  0  0  0  0  0  0
   -1.3791   -0.5579   -0.0394 C   0  0  0  0  0  0  0  0  0  0  0  0
   -2.1909    1.7001   -0.0361 C   0  0  0  0  0  0  0  0  0  0  0  0
   -2.6374   -1.0856    0.1845 C   0  0  0  0  0  0  0  0  0  0  0  0
    3.7127    0.4065   -1.1490 C   0  0  0  0  0  0  0  0  0  0  0  0
    4.2807    0.4336    1.1853 C   0  0  0  0  0  0  0  0  0  0  0  0
   -3.4768    1.1965    0.1880 C   0  0  0  0  0  0  0  0  0  0  0  0
   -3.6977   -0.1868    0.2978 C   0  0  0  0  0  0  0  0  0  0  0  0
  1  7  2  0
  2  5  1  0
  2 11  1  0
  2 12  1  0
  3  4  1  0
  3  5  1  0
  3  7  1  0
  4  6  1  0
  6  8  2  0
  6  9  1  0
  7  8  1  0
  8 10  1  0
  9 13  2  0
 10 14  2  0
 13 14  1  0
M  END
>  <PUBCHEM_COMPOUND_CID>  (1) 
5400

>  <PUBCHEM_CONFORMER_RMSD>  (1) 
0.6

>  <PUBCHEM_CONFORMER_DIVERSEORDER>  (1) 
1
2

>  <PUBCHEM_MMFF94_PARTIAL_CHARGES>  (1) 
18
1 -0.57
10 -0.15
11 0.27
12 0.27
13 -0.15
14 -0.15
2 -0.81
20 0.15
21 0.15
28 0.15
29 0.15
3 0.06
4 0.14
5 0.27
6 -0.14
7 0.42
8 0.09
9 -0.15

>  <PUBCHEM_EFFECTIVE_ROTOR_COUNT>  (1) 
2.4

>  <PUBCHEM_PHARMACOPHORE_FEATURES>  (1) 
4
1 1 acceptor
1 2 cation
5 3 4 6 7 8 rings
6 6 8 9 10 13 14 rings

>  <PUBCHEM_HEAVY_ATOM_COUNT>  (1) 
14

>  <PUBCHEM_ATOM_DEF_STEREO_COUNT>  (1) 
0

>  <PUBCHEM_ATOM_UDEF_STEREO_COUNT>  (1) 
1

>  <PUBCHEM_BOND_DEF_STEREO_COUNT>  (1) 
0

>  <PUBCHEM_BOND_UDEF_STEREO_COUNT>  (1) 
0

>  <PUBCHEM_ISOTOPIC_ATOM_COUNT>  (1) 
0

>  <PUBCHEM_COMPONENT_COUNT>  (1) 
1

>  <PUBCHEM_CACTVS_TAUTO_COUNT>  (1) 
2

>  <PUBCHEM_CONFORMER_ID>  (1) 
0000151800000001

>  <PUBCHEM_MMFF94_ENERGY>  (1) 
37.8343

>  <PUBCHEM_FEATURE_SELFOVERLAP>  (1) 
20.376

>  <PUBCHEM_SHAPE_FINGERPRINT>  (1) 
10608611 8 18267866081960293533
11132069 177 18409448072412629565
11543360 7 15554434219604011517
12251169 10 18259702298154729264
12346645 44 18341894056627352163
12382932 28 18337956675724306057
13214271 11 18341889706073368693
13380535 76 18408323259549328659
13538477 17 17968942032074183710
14144814 61 18334857220885481248
14289901 80 15140682518115051652
14325111 11 18411139104121431236
14614273 12 18260824839871965381
14993402 34 18261115200692782820
15219456 202 18131356263100505358
15309172 13 18410860962129110627
15536298 74 18341895126253914126
15669948 3 18264773336408953182
15775835 57 18410012117593118184
16945 1 18410856602695113615
17846911 113 18413102861937709504
1813 80 16806442506238437026
18186145 218 17775293741945171296
19026448 4 16988849392608338462
19026448 5 16732986439707734180
19422 9 17821729450986268610
200 152 14707198929398734464
20510252 161 18272936024401803713
20645476 183 17605010267328172654
20645477 56 18271523191242382488
20871998 184 18200036277740605063
21501502 16 18267020544870898323
23402539 116 18342726451243285967
23463225 33 18260264101562807594
23559900 14 18272379655187209740
2748010 2 18047762490343237775
4072396 5 18188758475442019603
43471831 8 18335137561880575843
5104073 3 18338803286945695283
53812653 166 18343580728833812489
633830 44 17846499197096953604
69090 78 17703785946365083422
7364860 26 18054791676184618382
77492 1 17676209104177223708
90316 7 17822000969944626268

>  <PUBCHEM_SHAPE_MULTIPOLES>  (1) 
277.26
7
1.68
0.87
3.95
0.51
-0.02
-1.86
-1.25
-0.89
0.07
0.83
-0.09
0.03

>  <PUBCHEM_SHAPE_SELFOVERLAP>  (1) 
588.356

>  <PUBCHEM_SHAPE_VOLUME>  (1) 
158.3

>  <PUBCHEM_COORDINATE_TYPE>  (1) 
2
5
10

$$$$
