5413
     RDKit          3D

  9  8  0  0  0  0  0  0  0  0999 V2000
    0.0000    0.0000    0.0000 N   0  0  0  0  0  0  0  0  0  0  0  0
   -0.8788   -0.1960    1.2271 C   0  0  0  0  0  0  0  0  0  0  0  0
   -0.8785    0.1960   -1.2272 C   0  0  0  0  0  0  0  0  0  0  0  0
    0.8785   -1.2272   -0.1958 C   0  0  0  0  0  0  0  0  0  0  0  0
    0.8787    1.2271    0.1959 C   0  0  0  0  0  0  0  0  0  0  0  0
   -1.7499   -1.4168    1.0263 C   0  0  0  0  0  0  0  0  0  0  0  0
   -1.7493    1.4170   -1.0266 C   0  0  0  0  0  0  0  0  0  0  0  0
    1.7497   -1.0267   -1.4166 C   0  0  0  0  0  0  0  0  0  0  0  0
    1.7495    1.0266    1.4169 C   0  0  0  0  0  0  0  0  0  0  0  0
  1  2  1  0
  1  3  1  0
  1  4  1  0
  1  5  1  0
  2  6  1  0
  3  7  1  0
  4  8  1  0
  5  9  1  0
M  CHG  1   1   1
M  END
>  <PUBCHEM_COMPOUND_CID>  (1) 
5413

>  <PUBCHEM_CONFORMER_RMSD>  (1) 
0.6

>  <PUBCHEM_CONFORMER_DIVERSEORDER>  (1) 
2
1

>  <PUBCHEM_MMFF94_PARTIAL_CHARGES>  (1) 
5
1 -1.01
2 0.5
3 0.5
4 0.5
5 0.5

>  <PUBCHEM_EFFECTIVE_ROTOR_COUNT>  (1) 
4

>  <PUBCHEM_PHARMACOPHORE_FEATURES>  (1) 
1
1 1 cation

>  <PUBCHEM_HEAVY_ATOM_COUNT>  (1) 
9

>  <PUBCHEM_ATOM_DEF_STEREO_COUNT>  (1) 
0

>  <PUBCHEM_ATOM_UDEF_STEREO_COUNT>  (1) 
0

>  <PUBCHEM_BOND_DEF_STEREO_COUNT>  (1) 
0

>  <PUBCHEM_BOND_UDEF_STEREO_COUNT>  (1) 
0

>  <PUBCHEM_ISOTOPIC_ATOM_COUNT>  (1) 
0

>  <PUBCHEM_COMPONENT_COUNT>  (1) 
1

>  <PUBCHEM_CACTVS_TAUTO_COUNT>  (1) 
1

>  <PUBCHEM_CONFORMER_ID>  (1) 
0000152500000002

>  <PUBCHEM_MMFF94_ENERGY>  (1) 
36.9332

>  <PUBCHEM_FEATURE_SELFOVERLAP>  (1) 
5.074

>  <PUBCHEM_SHAPE_FINGERPRINT>  (1) 
12423570 1 10354251533175602375
13024252 1 16594724029552355752
137420 1 11132050005686730583
20711978 78 17775021097110186195
21040471 1 17532362059378376253
21930827 45 18114181882821379861
23211744 25 17903913362116129597
23211744 41 17903593541671724957
29004967 10 17843992280663206550
5084963 1 17770481338459008352
5943 1 9019722554742407174
68250623 7 17762003957468951803
68419 9 16009034977119331742

>  <PUBCHEM_SHAPE_MULTIPOLES>  (1) 
180.23
2.36
1.66
1.66
0
0
0
0
0
-0.24
0
0.24
0
1.24

>  <PUBCHEM_SHAPE_SELFOVERLAP>  (1) 
322.521

>  <PUBCHEM_SHAPE_VOLUME>  (1) 
117.6

>  <PUBCHEM_COORDINATE_TYPE>  (1) 
2
5
10

$$$$
