5422
     RDKit          3D

 46 52  0  0  1  0  0  0  0  0999 V2000
    1.0514    0.3973   -0.7179 O   0  0  0  0  0  0  0  0  0  0  0  0
    3.6744    0.5556   -1.6667 O   0  0  0  0  0  0  0  0  0  0  0  0
    5.1096    2.8832   -1.3392 O   0  0  0  0  0  0  0  0  0  0  0  0
    2.8223    0.3929    1.6455 O   0  0  0  0  0  0  0  0  0  0  0  0
   -4.6201   -0.8173   -0.8487 O   0  0  0  0  0  0  0  0  0  0  0  0
   -6.5202    0.9806   -0.1258 O   0  0  0  0  0  0  0  0  0  0  0  0
   -0.7184    3.6855    1.3457 N   0  0  0  0  0  0  0  0  0  0  0  0
    1.5684   -5.6400   -0.1876 N   0  0  0  0  0  0  0  0  0  0  0  0
   -0.3277    2.6597    0.3503 C   0  0  0  0  0  0  0  0  0  0  0  0
    0.6849   -4.4648   -0.3922 C   0  0  0  0  0  0  0  0  0  0  0  0
    1.1489    2.6923   -0.0286 C   0  0  0  0  0  0  0  0  0  0  0  0
   -0.1987    5.0136    0.9998 C   0  0  0  0  0  0  0  0  0  0  0  0
    1.8989    3.8717    0.1317 C   0  0  0  0  0  0  0  0  0  0  0  0
    1.3221    5.0665    0.8454 C   0  0  0  0  0  0  0  0  0  0  0  0
    1.3104   -3.1621    0.0860 C   0  0  0  0  0  0  0  0  0  0  0  0
   -1.1963    2.7797   -0.9341 C   0  0  0  0  0  0  0  0  0  0  0  0
    2.0704   -5.7125    1.1913 C   0  0  0  0  0  0  0  0  0  0  0  0
    2.2469   -3.1646    1.1319 C   0  0  0  0  0  0  0  0  0  0  0  0
    2.8066   -4.4566    1.6689 C   0  0  0  0  0  0  0  0  0  0  0  0
   -0.6818   -4.7461    0.2994 C   0  0  0  0  0  0  0  0  0  0  0  0
    1.7789    1.5598   -0.5806 C   0  0  0  0  0  0  0  0  0  0  0  0
    0.9517   -1.9406   -0.5095 C   0  0  0  0  0  0  0  0  0  0  0  0
   -0.3617    3.2932    2.7094 C   0  0  0  0  0  0  0  0  0  0  0  0
    3.2330    3.9141   -0.3014 C   0  0  0  0  0  0  0  0  0  0  0  0
    1.4825   -0.7312   -0.0489 C   0  0  0  0  0  0  0  0  0  0  0  0
   -2.6171    2.3119   -0.7290 C   0  0  0  0  0  0  0  0  0  0  0  0
    2.7472   -1.9471    1.6134 C   0  0  0  0  0  0  0  0  0  0  0  0
    3.0956    1.6249   -1.0489 C   0  0  0  0  0  0  0  0  0  0  0  0
    2.6515   -5.6984   -1.1696 C   0  0  0  0  0  0  0  0  0  0  0  0
   -1.7653   -3.7334    0.0111 C   0  0  0  0  0  0  0  0  0  0  0  0
    3.8211    2.8031   -0.9042 C   0  0  0  0  0  0  0  0  0  0  0  0
    2.3518   -0.7355    1.0433 C   0  0  0  0  0  0  0  0  0  0  0  0
   -2.9329    0.9573   -0.9037 C   0  0  0  0  0  0  0  0  0  0  0  0
   -3.6260    3.2046   -0.3493 C   0  0  0  0  0  0  0  0  0  0  0  0
   -2.3598   -3.6593   -1.2562 C   0  0  0  0  0  0  0  0  0  0  0  0
   -2.1778   -2.8429    1.0142 C   0  0  0  0  0  0  0  0  0  0  0  0
   -4.2370    0.4988   -0.6825 C   0  0  0  0  0  0  0  0  0  0  0  0
   -4.9313    2.7504   -0.1528 C   0  0  0  0  0  0  0  0  0  0  0  0
   -3.6884   -1.7802   -0.5341 C   0  0  0  0  0  0  0  0  0  0  0  0
   -3.3242   -2.6883   -1.5282 C   0  0  0  0  0  0  0  0  0  0  0  0
   -3.1431   -1.8741    0.7480 C   0  0  0  0  0  0  0  0  0  0  0  0
   -5.2393    1.4007   -0.3233 C   0  0  0  0  0  0  0  0  0  0  0  0
    3.5287    0.4698   -3.0822 C   0  0  0  0  0  0  0  0  0  0  0  0
    6.1310    2.5301   -0.4085 C   0  0  0  0  0  0  0  0  0  0  0  0
    2.0517    0.9212    2.7227 C   0  0  0  0  0  0  0  0  0  0  0  0
   -6.8730    0.5768    1.1957 C   0  0  0  0  0  0  0  0  0  0  0  0
  1 21  1  0
  1 25  1  0
  2 28  1  0
  2 43  1  0
  3 31  1  0
  3 44  1  0
  4 32  1  0
  4 45  1  0
  5 37  1  0
  5 39  1  0
  6 42  1  0
  6 46  1  0
  7  9  1  0
  7 12  1  0
  7 23  1  0
  8 10  1  0
  8 17  1  0
  8 29  1  0
  9 11  1  0
  9 16  1  0
 10 15  1  0
 10 20  1  0
 11 13  2  0
 11 21  1  0
 12 14  1  0
 13 14  1  0
 13 24  1  0
 15 18  1  0
 15 22  2  0
 16 26  1  0
 17 19  1  0
 18 19  1  0
 18 27  2  0
 20 30  1  0
 21 28  2  0
 22 25  1  0
 24 31  2  0
 25 32  2  0
 26 33  1  0
 26 34  2  0
 27 32  1  0
 28 31  1  0
 30 35  2  0
 30 36  1  0
 33 37  2  0
 34 38  1  0
 35 40  1  0
 36 41  2  0
 37 42  1  0
 38 42  2  0
 39 40  2  0
 39 41  1  0
M  END
>  <PUBCHEM_COMPOUND_CID>  (1) 
5422

>  <PUBCHEM_CONFORMER_RMSD>  (1) 
1

>  <PUBCHEM_CONFORMER_DIVERSEORDER>  (1) 
3
18
6
9
22
20
14
19
23
8
11
21
17
13
16
4
12
7
15
10
2
1
5

>  <PUBCHEM_MMFF94_PARTIAL_CHARGES>  (1) 
56
1 -0.17
10 0.41
11 -0.14
12 0.27
13 -0.14
14 0.14
15 -0.14
16 0.14
17 0.27
18 -0.14
19 0.14
2 -0.36
20 0.14
21 0.08
22 -0.15
23 0.27
24 -0.15
25 0.08
26 -0.14
27 -0.15
28 0.08
29 0.27
3 -0.36
30 -0.14
31 0.08
32 0.08
33 -0.15
34 -0.15
35 -0.15
36 -0.15
37 0.08
38 -0.15
39 0.08
4 -0.36
40 -0.15
41 -0.15
42 0.08
43 0.28
44 0.28
45 0.28
46 0.28
5 -0.17
6 -0.36
61 0.15
65 0.15
66 0.15
7 -0.81
70 0.15
71 0.15
72 0.15
73 0.15
74 0.15
75 0.15
76 0.15
8 -0.81
9 0.41

>  <PUBCHEM_EFFECTIVE_ROTOR_COUNT>  (1) 
6

>  <PUBCHEM_PHARMACOPHORE_FEATURES>  (1) 
14
1 1 acceptor
1 2 acceptor
1 3 acceptor
1 4 acceptor
1 5 acceptor
1 6 acceptor
1 7 cation
1 8 cation
6 11 13 21 24 28 31 rings
6 15 18 22 25 27 32 rings
6 26 33 34 37 38 42 rings
6 30 35 36 39 40 41 rings
6 7 9 11 12 13 14 rings
6 8 10 15 17 18 19 rings

>  <PUBCHEM_HEAVY_ATOM_COUNT>  (1) 
46

>  <PUBCHEM_ATOM_DEF_STEREO_COUNT>  (1) 
0

>  <PUBCHEM_ATOM_UDEF_STEREO_COUNT>  (1) 
2

>  <PUBCHEM_BOND_DEF_STEREO_COUNT>  (1) 
0

>  <PUBCHEM_BOND_UDEF_STEREO_COUNT>  (1) 
0

>  <PUBCHEM_ISOTOPIC_ATOM_COUNT>  (1) 
0

>  <PUBCHEM_COMPONENT_COUNT>  (1) 
1

>  <PUBCHEM_CACTVS_TAUTO_COUNT>  (1) 
1

>  <PUBCHEM_CONFORMER_ID>  (1) 
0000152E00000003

>  <PUBCHEM_MMFF94_ENERGY>  (1) 
206.5917

>  <PUBCHEM_FEATURE_SELFOVERLAP>  (1) 
71.11

>  <PUBCHEM_SHAPE_FINGERPRINT>  (1) 
10290309 65 18337107869906933749
10439779 11 18195499662636378931
11014199 57 17689717454769727235
11135926 11 18334568049369906029
11285246 1 18055387719604289214
11399939 17 17981043016484508136
11434127 23 17547569743825384124
12128747 34 17258216797046978660
12608794 3 17834988598886383480
13560911 43 18046063753405624467
140371 6 18121213186745879674
14040221 299 18410567410068425716
144659 178 17905325130956863974
14725015 67 17979073013933214495
15297060 5 18341057422762795800
15320467 1 18410288091123001831
15351339 4 18410853299775455658
15400415 2 18337672035679491133
15968369 26 18190442897460351353
16112460 7 18343033189766751681
17627616 140 18336832996252232631
19319366 153 18410014355345413621
20764821 26 18267000878241952339
21796203 349 17472737661011958323
21987440 362 18333447668870286734
23516275 137 18189919551031180393
42626532 9 16673874779760650794
50677037 204 17617940236545801918
5776283 40 18264227871278379142

>  <PUBCHEM_SHAPE_MULTIPOLES>  (1) 
901.48
10.19
9.92
1.91
12.83
4.97
0.31
-1.89
-1.51
-8.51
1.03
-1.45
-0.47
-2.27

>  <PUBCHEM_SHAPE_SELFOVERLAP>  (1) 
1982.658

>  <PUBCHEM_SHAPE_VOLUME>  (1) 
486.1

>  <PUBCHEM_COORDINATE_TYPE>  (1) 
2
5
10

$$$$
