5424
     RDKit          3D

 12 12  0  0  0  0  0  0  0  0999 V2000
    2.4878    1.3129   -0.0016 O   0  0  0  0  0  0  0  0  0  0  0  0
    2.3955   -1.4765   -0.0019 O   0  0  0  0  0  0  0  0  0  0  0  0
   -2.3959    1.4754   -0.0018 O   0  0  0  0  0  0  0  0  0  0  0  0
   -2.4878   -1.3121   -0.0016 O   0  0  0  0  0  0  0  0  0  0  0  0
    0.1049    2.6605    0.0032 O   0  0  0  0  0  0  0  0  0  0  0  0
   -0.1049   -2.6606    0.0033 O   0  0  0  0  0  0  0  0  0  0  0  0
    1.2953    0.6185   -0.0004 C   0  0  0  0  0  0  0  0  0  0  0  0
    1.2410   -0.7189   -0.0005 C   0  0  0  0  0  0  0  0  0  0  0  0
   -1.2411    0.7186   -0.0006 C   0  0  0  0  0  0  0  0  0  0  0  0
   -1.2953   -0.6174   -0.0005 C   0  0  0  0  0  0  0  0  0  0  0  0
    0.0582    1.4340    0.0014 C   0  0  0  0  0  0  0  0  0  0  0  0
   -0.0577   -1.4343    0.0013 C   0  0  0  0  0  0  0  0  0  0  0  0
  1  7  1  0
  2  8  1  0
  3  9  1  0
  4 10  1  0
  5 11  2  0
  6 12  2  0
  7  8  2  0
  7 11  1  0
  8 12  1  0
  9 10  2  0
  9 11  1  0
 10 12  1  0
M  END
>  <PUBCHEM_COMPOUND_CID>  (1) 
5424

>  <PUBCHEM_CONFORMER_RMSD>  (1) 
0.4

>  <PUBCHEM_CONFORMER_DIVERSEORDER>  (1) 
1

>  <PUBCHEM_MMFF94_PARTIAL_CHARGES>  (1) 
16
1 -0.53
10 0.09
11 0.54
12 0.54
13 0.45
14 0.45
15 0.45
16 0.45
2 -0.53
3 -0.53
4 -0.53
5 -0.57
6 -0.57
7 0.09
8 0.09
9 0.09

>  <PUBCHEM_EFFECTIVE_ROTOR_COUNT>  (1) 
0

>  <PUBCHEM_PHARMACOPHORE_FEATURES>  (1) 
7
1 1 donor
1 2 donor
1 3 donor
1 4 donor
1 5 acceptor
1 6 acceptor
6 7 8 9 10 11 12 rings

>  <PUBCHEM_HEAVY_ATOM_COUNT>  (1) 
12

>  <PUBCHEM_ATOM_DEF_STEREO_COUNT>  (1) 
0

>  <PUBCHEM_ATOM_UDEF_STEREO_COUNT>  (1) 
0

>  <PUBCHEM_BOND_DEF_STEREO_COUNT>  (1) 
0

>  <PUBCHEM_BOND_UDEF_STEREO_COUNT>  (1) 
0

>  <PUBCHEM_ISOTOPIC_ATOM_COUNT>  (1) 
0

>  <PUBCHEM_COMPONENT_COUNT>  (1) 
1

>  <PUBCHEM_CACTVS_TAUTO_COUNT>  (1) 
7

>  <PUBCHEM_CONFORMER_ID>  (1) 
0000153000000001

>  <PUBCHEM_MMFF94_ENERGY>  (1) 
19.9963

>  <PUBCHEM_FEATURE_SELFOVERLAP>  (1) 
35.53

>  <PUBCHEM_SHAPE_FINGERPRINT>  (1) 
12423570 1 17533767471277200693
16945 1 18122626316632064004
18185500 45 18267020544559616439
193761 8 18194402431398313991
21040471 1 18410574028291158080
2334 1 18410855481602998279
23552423 10 18333454222615774630
241688 4 18410856516695398202
2748010 2 18410855451538227327
5084963 1 18202563973088785019
528886 8 18339074878601224881
66348 1 18338516335278948386

>  <PUBCHEM_SHAPE_MULTIPOLES>  (1) 
211.74
2.85
2.66
0.56
0
0
0
0
0
0
0
0
0
0

>  <PUBCHEM_SHAPE_SELFOVERLAP>  (1) 
451.572

>  <PUBCHEM_SHAPE_VOLUME>  (1) 
116.2

>  <PUBCHEM_COORDINATE_TYPE>  (1) 
2
5
10

$$$$
