5446
     RDKit          3D

 11 12  0  0  1  0  0  0  0  0999 V2000
   -2.9488    0.3219    0.2204 S   0  0  0  0  0  0  0  0  0  0  0  0
    0.9801    0.3022    0.4424 C   0  0  0  0  0  0  0  0  0  0  0  0
   -0.1958    0.5331   -0.5589 C   0  0  0  0  0  0  0  0  0  0  0  0
    0.6682   -1.2144    0.5762 C   0  0  0  0  0  0  0  0  0  0  0  0
    0.0811   -0.5104   -1.6725 C   0  0  0  0  0  0  0  0  0  0  0  0
    0.6822   -1.7027   -0.8945 C   0  0  0  0  0  0  0  0  0  0  0  0
   -0.8009   -1.2607    1.0629 C   0  0  0  0  0  0  0  0  0  0  0  0
   -1.3394   -0.1038    0.2451 C   0  0  0  0  0  0  0  0  0  0  0  0
    2.3873    0.5931   -0.1177 C   0  0  0  0  0  0  0  0  0  0  0  0
    0.8652    1.0937    1.7618 C   0  0  0  0  0  0  0  0  0  0  0  0
   -0.3793    1.9481   -1.0652 C   0  0  0  0  0  0  0  0  0  0  0  0
  1  8  2  0
  2  3  1  0
  2  4  1  0
  2  9  1  0
  2 10  1  0
  3  5  1  0
  3  8  1  0
  3 11  1  0
  4  6  1  0
  4  7  1  0
  5  6  1  0
  7  8  1  0
M  END
>  <PUBCHEM_COMPOUND_CID>  (1) 
5446

>  <PUBCHEM_CONFORMER_RMSD>  (1) 
0.4

>  <PUBCHEM_CONFORMER_DIVERSEORDER>  (1) 
1
2

>  <PUBCHEM_MMFF94_PARTIAL_CHARGES>  (1) 
4
1 -0.38
3 0.06
7 0.06
8 0.26

>  <PUBCHEM_EFFECTIVE_ROTOR_COUNT>  (1) 
0.8

>  <PUBCHEM_PHARMACOPHORE_FEATURES>  (1) 
3
1 1 acceptor
3 2 9 10 hydrophobe
7 2 3 4 5 6 7 8 rings

>  <PUBCHEM_HEAVY_ATOM_COUNT>  (1) 
11

>  <PUBCHEM_ATOM_DEF_STEREO_COUNT>  (1) 
0

>  <PUBCHEM_ATOM_UDEF_STEREO_COUNT>  (1) 
2

>  <PUBCHEM_BOND_DEF_STEREO_COUNT>  (1) 
0

>  <PUBCHEM_BOND_UDEF_STEREO_COUNT>  (1) 
0

>  <PUBCHEM_ISOTOPIC_ATOM_COUNT>  (1) 
0

>  <PUBCHEM_COMPONENT_COUNT>  (1) 
1

>  <PUBCHEM_CACTVS_TAUTO_COUNT>  (1) 
2

>  <PUBCHEM_CONFORMER_ID>  (1) 
0000154600000001

>  <PUBCHEM_MMFF94_ENERGY>  (1) 
52.061

>  <PUBCHEM_FEATURE_SELFOVERLAP>  (1) 
15.223

>  <PUBCHEM_SHAPE_FINGERPRINT>  (1) 
10702982 57 17059763537418701742
12423570 1 16319438371176706686
13024252 1 15800381755291860480
137420 1 12942532467974042898
15557651 10 18271512174129080744
16945 1 18272101486512403274
21040471 1 17968111827638298547
21922407 69 13624950587355595701
369184 2 16673804243053805936
5084963 1 18338498777473858376
528886 8 18260832643479284728
68250623 7 16840537188334520608

>  <PUBCHEM_SHAPE_MULTIPOLES>  (1) 
230.22
2.52
1.7
1.51
1.4
0.02
-0.02
0.47
-0.33
-0.22
0.21
-0.22
0.12
0.37

>  <PUBCHEM_SHAPE_SELFOVERLAP>  (1) 
475.705

>  <PUBCHEM_SHAPE_VOLUME>  (1) 
137.9

>  <PUBCHEM_COORDINATE_TYPE>  (1) 
2
5
10

$$$$
