5447
     RDKit          3D

  7  6  0  0  0  0  0  0  0  0999 V2000
    0.0045   -0.3782    0.0001 S   0  0  0  0  0  0  0  0  0  0  0  0
   -3.0053   -0.7226    0.5827 O   0  0  0  0  0  0  0  0  0  0  0  0
    3.0064   -0.7182   -0.5854 O   0  0  0  0  0  0  0  0  0  0  0  0
   -1.3470    0.8104   -0.2635 C   0  0  0  0  0  0  0  0  0  0  0  0
    1.3430    0.8062    0.2661 C   0  0  0  0  0  0  0  0  0  0  0  0
   -2.6666    0.1016   -0.5249 C   0  0  0  0  0  0  0  0  0  0  0  0
    2.6650    0.1010    0.5250 C   0  0  0  0  0  0  0  0  0  0  0  0
  1  4  1  0
  1  5  1  0
  2  6  1  0
  3  7  1  0
  4  6  1  0
  5  7  1  0
M  END
>  <PUBCHEM_COMPOUND_CID>  (1) 
5447

>  <PUBCHEM_CONFORMER_RMSD>  (1) 
0.6

>  <PUBCHEM_CONFORMER_DIVERSEORDER>  (1) 
1
27
6
20
16
18
2
26
7
25
8
3
4
14
23
12
21
19
9
24
5
22
10
13
11
15
17

>  <PUBCHEM_MMFF94_PARTIAL_CHARGES>  (1) 
9
1 -0.46
16 0.4
17 0.4
2 -0.68
3 -0.68
4 0.23
5 0.23
6 0.28
7 0.28

>  <PUBCHEM_EFFECTIVE_ROTOR_COUNT>  (1) 
4

>  <PUBCHEM_PHARMACOPHORE_FEATURES>  (1) 
4
1 2 acceptor
1 2 donor
1 3 acceptor
1 3 donor

>  <PUBCHEM_HEAVY_ATOM_COUNT>  (1) 
7

>  <PUBCHEM_ATOM_DEF_STEREO_COUNT>  (1) 
0

>  <PUBCHEM_ATOM_UDEF_STEREO_COUNT>  (1) 
0

>  <PUBCHEM_BOND_DEF_STEREO_COUNT>  (1) 
0

>  <PUBCHEM_BOND_UDEF_STEREO_COUNT>  (1) 
0

>  <PUBCHEM_ISOTOPIC_ATOM_COUNT>  (1) 
0

>  <PUBCHEM_COMPONENT_COUNT>  (1) 
1

>  <PUBCHEM_CACTVS_TAUTO_COUNT>  (1) 
1

>  <PUBCHEM_CONFORMER_ID>  (1) 
0000154700000001

>  <PUBCHEM_MMFF94_ENERGY>  (1) 
6.663

>  <PUBCHEM_FEATURE_SELFOVERLAP>  (1) 
20.297

>  <PUBCHEM_SHAPE_FINGERPRINT>  (1) 
11062470 55 11743836971484556898
12932741 1 18188196680602932661
14325111 11 18410852165914755936
29004967 10 18060415811525744096
5460574 1 9871750217054609744

>  <PUBCHEM_SHAPE_MULTIPOLES>  (1) 
136.17
5.26
0.94
0.78
0.01
0.06
0
-0.94
0
0
0
0
-0.05
0.43

>  <PUBCHEM_SHAPE_SELFOVERLAP>  (1) 
224.187

>  <PUBCHEM_SHAPE_VOLUME>  (1) 
94

>  <PUBCHEM_COORDINATE_TYPE>  (1) 
2
5
10

$$$$
