5458
     RDKit          3D

 33 38  0  0  1  0  0  0  0  0999 V2000
    0.5270    0.9654   -1.9954 O   0  0  0  0  0  0  0  0  0  0  0  0
   -0.1974    1.6253    2.1742 O   0  0  0  0  0  0  0  0  0  0  0  0
    5.3234    0.1895   -0.4082 O   0  0  0  0  0  0  0  0  0  0  0  0
   -2.1728    1.6821   -0.2200 N   0  0  0  0  0  0  0  0  0  0  0  0
   -1.0212   -1.7977   -0.3854 N   0  0  0  0  0  0  0  0  0  0  0  0
    5.5979   -2.6383   -0.8875 N   0  0  0  0  0  0  0  0  0  0  0  0
    0.1243    1.2698   -0.6598 C   0  0  0  0  0  0  0  0  0  0  0  0
   -1.2549    0.7016   -0.3785 C   0  0  0  0  0  0  0  0  0  0  0  0
   -0.1881    2.7491   -0.6307 C   0  0  0  0  0  0  0  0  0  0  0  0
   -1.5483    2.9525   -0.3702 C   0  0  0  0  0  0  0  0  0  0  0  0
   -1.6968   -0.6079   -0.2712 C   0  0  0  0  0  0  0  0  0  0  0  0
    1.1715    0.8518    0.3646 C   0  0  0  0  0  0  0  0  0  0  0  0
   -3.0314   -0.9094   -0.0041 C   0  0  0  0  0  0  0  0  0  0  0  0
   -3.4661    1.4582    0.0370 C   0  0  0  0  0  0  0  0  0  0  0  0
   -3.1428   -2.3353    0.0430 C   0  0  0  0  0  0  0  0  0  0  0  0
   -3.9421    0.1526    0.1555 C   0  0  0  0  0  0  0  0  0  0  0  0
    0.6439    3.8368   -0.8273 C   0  0  0  0  0  0  0  0  0  0  0  0
   -1.8726   -2.8607   -0.1976 C   0  0  0  0  0  0  0  0  0  0  0  0
   -2.1291    4.2009   -0.2865 C   0  0  0  0  0  0  0  0  0  0  0  0
    2.3593    0.2625   -0.0716 C   0  0  0  0  0  0  0  0  0  0  0  0
    0.9546    1.0501    1.7294 C   0  0  0  0  0  0  0  0  0  0  0  0
    3.3274   -0.1274    0.8539 C   0  0  0  0  0  0  0  0  0  0  0  0
    0.0854    5.1172   -0.7492 C   0  0  0  0  0  0  0  0  0  0  0  0
   -1.2856    5.2961   -0.4810 C   0  0  0  0  0  0  0  0  0  0  0  0
   -4.2105   -3.2291    0.2687 C   0  0  0  0  0  0  0  0  0  0  0  0
    1.9229    0.6599    2.6548 C   0  0  0  0  0  0  0  0  0  0  0  0
    4.5963   -0.7566    0.3870 C   0  0  0  0  0  0  0  0  0  0  0  0
   -1.6146   -4.2359   -0.2234 C   0  0  0  0  0  0  0  0  0  0  0  0
    3.1092    0.0714    2.2170 C   0  0  0  0  0  0  0  0  0  0  0  0
   -3.9680   -4.6071    0.2456 C   0  0  0  0  0  0  0  0  0  0  0  0
   -2.6883   -5.1009    0.0033 C   0  0  0  0  0  0  0  0  0  0  0  0
    4.3453   -2.0327   -0.4409 C   0  0  0  0  0  0  0  0  0  0  0  0
    5.3421   -3.8538   -1.6452 C   0  0  0  0  0  0  0  0  0  0  0  0
  1  7  1  0
  2 21  1  0
  3 27  1  0
  4  8  1  0
  4 10  1  0
  4 14  2  0
  5 11  1  0
  5 18  1  0
  6 32  1  0
  6 33  1  0
  7  8  1  0
  7  9  1  0
  7 12  1  0
  8 11  2  0
  9 10  2  0
  9 17  1  0
 10 19  1  0
 11 13  1  0
 12 20  2  0
 12 21  1  0
 13 15  1  0
 13 16  2  0
 14 16  1  0
 15 18  2  0
 15 25  1  0
 17 23  2  0
 18 28  1  0
 19 24  2  0
 20 22  1  0
 21 26  2  0
 22 27  1  0
 22 29  2  0
 23 24  1  0
 25 30  2  0
 26 29  1  0
 27 32  1  0
 28 31  2  0
 30 31  1  0
M  CHG  1   4   1
M  END
>  <PUBCHEM_COMPOUND_CID>  (1) 
5458

>  <PUBCHEM_CONFORMER_RMSD>  (1) 
0.8

>  <PUBCHEM_CONFORMER_DIVERSEORDER>  (1) 
1
8
36
25
27
23
19
20
3
21
37
34
26
33
29
32
31
11
35
28
16
15
9
2
10
17
5
12
4
30
7
22
24
18
6
13
14

>  <PUBCHEM_MMFF94_PARTIAL_CHARGES>  (1) 
49
1 -0.68
10 0.36
11 -0.15
12 -0.14
14 0.21
16 -0.15
17 -0.15
18 -0.15
19 -0.15
2 -0.53
20 -0.15
21 0.08
22 -0.14
23 -0.15
24 -0.15
25 -0.15
26 -0.15
27 0.42
28 -0.15
29 -0.15
3 -0.68
30 -0.15
31 -0.15
32 0.27
33 0.27
34 0.15
35 0.27
36 0.15
37 0.15
38 0.15
39 0.15
4 -0.08
40 0.4
41 0.15
42 0.15
43 0.15
44 0.15
46 0.15
47 0.15
48 0.15
49 0.15
5 0.03
52 0.45
53 0.4
54 0.36
6 -0.9
7 0.71
8 0.22
9 -0.14

>  <PUBCHEM_EFFECTIVE_ROTOR_COUNT>  (1) 
4.2

>  <PUBCHEM_PHARMACOPHORE_FEATURES>  (1) 
15
1 1 acceptor
1 1 donor
1 2 donor
1 3 acceptor
1 3 donor
1 5 cation
1 5 donor
1 6 cation
1 6 donor
5 4 7 8 9 10 rings
5 5 11 13 15 18 rings
6 12 20 21 22 26 29 rings
6 15 18 25 28 30 31 rings
6 4 8 11 13 14 16 rings
6 9 10 17 19 23 24 rings

>  <PUBCHEM_HEAVY_ATOM_COUNT>  (1) 
33

>  <PUBCHEM_ATOM_DEF_STEREO_COUNT>  (1) 
0

>  <PUBCHEM_ATOM_UDEF_STEREO_COUNT>  (1) 
2

>  <PUBCHEM_BOND_DEF_STEREO_COUNT>  (1) 
0

>  <PUBCHEM_BOND_UDEF_STEREO_COUNT>  (1) 
0

>  <PUBCHEM_ISOTOPIC_ATOM_COUNT>  (1) 
0

>  <PUBCHEM_COMPONENT_COUNT>  (1) 
1

>  <PUBCHEM_CACTVS_TAUTO_COUNT>  (1) 
3

>  <PUBCHEM_CONFORMER_ID>  (1) 
0000155200000001

>  <PUBCHEM_MMFF94_ENERGY>  (1) 
99.84

>  <PUBCHEM_FEATURE_SELFOVERLAP>  (1) 
76.489

>  <PUBCHEM_SHAPE_FINGERPRINT>  (1) 
10165383 225 17621604903968531760
10190108 129 18124034525758241769
107951 10 17837205974684702316
1100329 8 18336543928279686001
11135926 11 17183333462336068735
12107183 9 18267317602585500147
12788726 201 18186795846970480392
13785724 45 18266752448876310747
138480 1 15888271947254836423
14910302 57 18269266881776223042
14955137 171 18261127278678863513
15230672 131 17543355952293142462
15439362 3 16534821111579872956
15664445 248 17906181998597098212
17492 89 17832421269712312195
19315092 285 16483312814260657499
19958102 18 18123467177341000118
20600515 1 18342747329343659869
20771845 140 17332520684164865256
20771845 38 15673599087906119687
20775530 9 18196365046817251330
21133410 230 17544798579882736827
21421861 104 17541371780248295275
21796203 349 17826821392034270898
23559900 14 17978503462583345527
3298306 158 17478315449461823398
4058900 60 17260196488949201544
4394409 98 17111851467036698526
508706 21 18197491836156734342
5265222 85 18050859814688425118
613672 6 18122600980683886247
6376802 90 18196645191439932624
6700243 42 18055665943443770596
70251023 43 17903081367206422243
70634741 139 18198913505525093358

>  <PUBCHEM_SHAPE_MULTIPOLES>  (1) 
646.57
8.77
7.97
1.52
5.38
2.57
0.9
-14.47
-0.63
-2.47
-3.23
1.82
0.05
1.72

>  <PUBCHEM_SHAPE_SELFOVERLAP>  (1) 
1473.35

>  <PUBCHEM_SHAPE_VOLUME>  (1) 
338.4

>  <PUBCHEM_COORDINATE_TYPE>  (1) 
2
5
10

$$$$
