546
     RDKit          3D

  8  7  0  0  0  0  0  0  0  0999 V2000
    1.2184   -0.0156    0.0847 P   0  0  0  0  0  0  0  0  0  0  0  0
    2.3134    1.1655    0.0506 O   0  0  0  0  0  0  0  0  0  0  0  0
    1.2485   -0.6139   -1.4112 O   0  0  0  0  0  0  0  0  0  0  0  0
    1.3616   -1.0079    1.1879 O   0  0  0  0  0  0  0  0  0  0  0  0
   -2.7108    0.7439    0.0679 O   0  0  0  0  0  0  0  0  0  0  0  0
   -1.5320   -1.1904   -0.1002 O   0  0  0  0  0  0  0  0  0  0  0  0
   -0.3380    0.8897    0.1163 C   0  0  0  0  0  0  0  0  0  0  0  0
   -1.5612    0.0288    0.0039 C   0  0  0  0  0  0  0  0  0  0  0  0
  1  2  1  0
  1  3  1  0
  1  4  2  0
  1  7  1  0
  5  8  1  0
  6  8  2  0
  7  8  1  0
M  END
>  <PUBCHEM_COMPOUND_CID>  (1) 
546

>  <PUBCHEM_CONFORMER_RMSD>  (1) 
0.4

>  <PUBCHEM_CONFORMER_DIVERSEORDER>  (1) 
1
2
3

>  <PUBCHEM_MMFF94_PARTIAL_CHARGES>  (1) 
11
1 1.24
11 0.5
12 0.5
13 0.5
2 -0.77
3 -0.77
4 -0.7
5 -0.65
6 -0.57
7 0.06
8 0.66

>  <PUBCHEM_EFFECTIVE_ROTOR_COUNT>  (1) 
2

>  <PUBCHEM_PHARMACOPHORE_FEATURES>  (1) 
7
1 2 acceptor
1 3 acceptor
1 4 acceptor
1 5 acceptor
1 6 acceptor
3 5 6 8 anion
4 1 2 3 4 anion

>  <PUBCHEM_HEAVY_ATOM_COUNT>  (1) 
8

>  <PUBCHEM_ATOM_DEF_STEREO_COUNT>  (1) 
0

>  <PUBCHEM_ATOM_UDEF_STEREO_COUNT>  (1) 
0

>  <PUBCHEM_BOND_DEF_STEREO_COUNT>  (1) 
0

>  <PUBCHEM_BOND_UDEF_STEREO_COUNT>  (1) 
0

>  <PUBCHEM_ISOTOPIC_ATOM_COUNT>  (1) 
0

>  <PUBCHEM_COMPONENT_COUNT>  (1) 
1

>  <PUBCHEM_CACTVS_TAUTO_COUNT>  (1) 
1

>  <PUBCHEM_CONFORMER_ID>  (1) 
0000022200000001

>  <PUBCHEM_MMFF94_ENERGY>  (1) 
-25.6278

>  <PUBCHEM_FEATURE_SELFOVERLAP>  (1) 
35.618

>  <PUBCHEM_SHAPE_FINGERPRINT>  (1) 
14390081 3 18342736355501576585
18185500 45 18187077356148465523
21040471 1 18341049606106718873
24536 1 17917710167138932105
29004967 10 17489316307878541440

>  <PUBCHEM_SHAPE_MULTIPOLES>  (1) 
139.14
3.15
1.18
0.93
0.99
0.02
-0.11
-0.57
0.06
-0.11
0.07
-0.47
0.28
-0.08

>  <PUBCHEM_SHAPE_SELFOVERLAP>  (1) 
247.118

>  <PUBCHEM_SHAPE_VOLUME>  (1) 
90.6

>  <PUBCHEM_COORDINATE_TYPE>  (1) 
2
5
10

$$$$
