5475
     RDKit          3D

 30 32  0  0  0  0  0  0  0  0999 V2000
   -4.6027   -0.8107   -1.2719 O   0  0  0  0  0  0  0  0  0  0  0  0
    4.6021   -0.8093    1.2720 O   0  0  0  0  0  0  0  0  0  0  0  0
   -0.0001    1.7324   -0.0009 O   0  0  0  0  0  0  0  0  0  0  0  0
   -7.3015    1.4056   -0.1013 N   0  0  0  0  0  0  0  0  0  0  0  0
    7.3019    1.4056    0.1009 N   0  0  0  0  0  0  0  0  0  0  0  0
   -0.6976   -1.6912   -0.1924 C   0  0  0  0  0  0  0  0  0  0  0  0
    0.6970   -1.6909    0.1933 C   0  0  0  0  0  0  0  0  0  0  0  0
   -1.1420   -0.3633   -0.3159 C   0  0  0  0  0  0  0  0  0  0  0  0
    1.1413   -0.3631    0.3157 C   0  0  0  0  0  0  0  0  0  0  0  0
   -0.0004    0.5211   -0.0002 C   0  0  0  0  0  0  0  0  0  0  0  0
   -6.6758    0.2014   -0.6269 C   0  0  0  0  0  0  0  0  0  0  0  0
    6.6757    0.2020    0.6275 C   0  0  0  0  0  0  0  0  0  0  0  0
   -2.4317   -0.0261   -0.6731 C   0  0  0  0  0  0  0  0  0  0  0  0
    2.4312   -0.0254    0.6719 C   0  0  0  0  0  0  0  0  0  0  0  0
   -1.5769   -2.7315   -0.4352 C   0  0  0  0  0  0  0  0  0  0  0  0
    1.5765   -2.7311    0.4365 C   0  0  0  0  0  0  0  0  0  0  0  0
   -3.3144   -1.0783   -0.9168 C   0  0  0  0  0  0  0  0  0  0  0  0
    3.3140   -1.0774    0.9161 C   0  0  0  0  0  0  0  0  0  0  0  0
   -5.1750    0.3958   -0.7718 C   0  0  0  0  0  0  0  0  0  0  0  0
    5.1747    0.3966    0.7709 C   0  0  0  0  0  0  0  0  0  0  0  0
   -8.7335    1.4227   -0.4102 C   0  0  0  0  0  0  0  0  0  0  0  0
   -7.0955    1.5074    1.3456 C   0  0  0  0  0  0  0  0  0  0  0  0
    7.0970    1.5055   -1.3463 C   0  0  0  0  0  0  0  0  0  0  0  0
    8.7335    1.4232    0.4109 C   0  0  0  0  0  0  0  0  0  0  0  0
   -2.8921   -2.4166   -0.7992 C   0  0  0  0  0  0  0  0  0  0  0  0
    2.8919   -2.4158    0.7998 C   0  0  0  0  0  0  0  0  0  0  0  0
   -9.4527    0.2617    0.2555 C   0  0  0  0  0  0  0  0  0  0  0  0
   -7.6850    2.7955    1.8947 C   0  0  0  0  0  0  0  0  0  0  0  0
    7.6869    2.7929   -1.8966 C   0  0  0  0  0  0  0  0  0  0  0  0
    9.4533    0.2613   -0.2526 C   0  0  0  0  0  0  0  0  0  0  0  0
  1 17  1  0
  1 19  1  0
  2 18  1  0
  2 20  1  0
  3 10  2  0
  4 11  1  0
  4 21  1  0
  4 22  1  0
  5 12  1  0
  5 23  1  0
  5 24  1  0
  6  7  1  0
  6  8  2  0
  6 15  1  0
  7  9  2  0
  7 16  1  0
  8 10  1  0
  8 13  1  0
  9 10  1  0
  9 14  1  0
 11 19  1  0
 12 20  1  0
 13 17  2  0
 14 18  2  0
 15 25  2  0
 16 26  2  0
 17 25  1  0
 18 26  1  0
 21 27  1  0
 22 28  1  0
 23 29  1  0
 24 30  1  0
M  END
>  <PUBCHEM_COMPOUND_CID>  (1) 
5475

>  <PUBCHEM_CONFORMER_RMSD>  (1) 
1.4

>  <PUBCHEM_CONFORMER_DIVERSEORDER>  (1) 
1
14
11
7
13
8
6
4
5
12
2
9
10
3

>  <PUBCHEM_MMFF94_PARTIAL_CHARGES>  (1) 
30
1 -0.36
10 0.4
11 0.27
12 0.27
13 -0.15
14 -0.15
15 -0.15
16 -0.15
17 0.08
18 0.08
19 0.28
2 -0.36
20 0.28
21 0.27
22 0.27
23 0.27
24 0.27
25 -0.15
26 -0.15
3 -0.57
35 0.15
36 0.15
37 0.15
38 0.15
4 -0.81
5 -0.81
51 0.15
52 0.15
8 0.09
9 0.09

>  <PUBCHEM_EFFECTIVE_ROTOR_COUNT>  (1) 
12

>  <PUBCHEM_PHARMACOPHORE_FEATURES>  (1) 
8
1 1 acceptor
1 2 acceptor
1 3 acceptor
1 4 cation
1 5 cation
5 6 7 8 9 10 rings
6 6 8 13 15 17 25 rings
6 7 9 14 16 18 26 rings

>  <PUBCHEM_HEAVY_ATOM_COUNT>  (1) 
30

>  <PUBCHEM_ATOM_DEF_STEREO_COUNT>  (1) 
0

>  <PUBCHEM_ATOM_UDEF_STEREO_COUNT>  (1) 
0

>  <PUBCHEM_BOND_DEF_STEREO_COUNT>  (1) 
0

>  <PUBCHEM_BOND_UDEF_STEREO_COUNT>  (1) 
0

>  <PUBCHEM_ISOTOPIC_ATOM_COUNT>  (1) 
0

>  <PUBCHEM_COMPONENT_COUNT>  (1) 
1

>  <PUBCHEM_CACTVS_TAUTO_COUNT>  (1) 
1

>  <PUBCHEM_CONFORMER_ID>  (1) 
0000156300000001

>  <PUBCHEM_MMFF94_ENERGY>  (1) 
93.7249

>  <PUBCHEM_FEATURE_SELFOVERLAP>  (1) 
40.765

>  <PUBCHEM_SHAPE_FINGERPRINT>  (1) 
10 15 18040149605008235771
106641 1 16153707622091315067
10674148 151 17775279474454113560
10906281 52 18410575084663825962
11386260 185 15482378837890772328
12539765 74 18413393142283679990
14251764 18 18341603812139936215
14394314 77 17968942045334250084
14849402 71 18412542116141645033
15064981 194 18267309918060409718
15198563 99 16200165282990215264
15461852 350 17131541830867494951
15690457 1 9655579621701626348
15706992 2 18261117373903990727
15840311 113 18187086126920272142
16728433 281 16844462526909672265
16992610 120 18412834590386630502
1754908 1 14923943448674147673
21095123 293 18333449833138801093
21585482 111 18269835320835979793
21781055 127 18131346363860810914
21792961 116 12535628298087413023
23559900 14 18055061319544183112
23729398 52 18124883343918269630
24771293 8 18409163308134328167
335352 9 18342448266797002053
3711267 37 18411704291732715264
3986486 107 17203618073152787984
4073 2 18334294263039282931
4112364 45 17022912284828874958
4169191 19 18408598142104752661
4340502 62 16733262353024089667
5104073 3 18336247012500642211
5758199 1 18411415103479225723
59682541 35 15719392832453952657
6081469 158 12751237013118428587
6328613 192 18343298167652200211
6438161 24 10735875075857781910
9663363 56 15985100822352022914
9953998 17 16153428359576481297
9962374 69 8862935074772104746

>  <PUBCHEM_SHAPE_MULTIPOLES>  (1) 
589.82
30.71
2.9
1.3
0.02
0.46
0
-28.46
0
-0.01
0
0
-0.62
-4.2

>  <PUBCHEM_SHAPE_SELFOVERLAP>  (1) 
1239.678

>  <PUBCHEM_SHAPE_VOLUME>  (1) 
337.7

>  <PUBCHEM_COORDINATE_TYPE>  (1) 
2
5
10

$$$$
