548
     RDKit          3D

 14 13  0  0  0  0  0  0  0  0999 V2000
    2.6742    2.7953   -0.1703 O   0  0  0  0  0  0  0  0  0  0  0  0
    2.4195   -2.9901    0.1456 O   0  0  0  0  0  0  0  0  0  0  0  0
    2.3428    1.2378    1.4475 O   0  0  0  0  0  0  0  0  0  0  0  0
   -2.5173   -1.5909    0.4923 O   0  0  0  0  0  0  0  0  0  0  0  0
   -4.4684    0.1063    0.2454 O   0  0  0  0  0  0  0  0  0  0  0  0
   -3.0033    1.7019   -0.4691 O   0  0  0  0  0  0  0  0  0  0  0  0
    2.0487    0.6226   -0.8992 C   0  0  0  0  0  0  0  0  0  0  0  0
    1.6126   -0.7490   -0.4231 C   0  0  0  0  0  0  0  0  0  0  0  0
    0.1994   -0.9826   -0.1233 C   0  0  0  0  0  0  0  0  0  0  0  0
    2.3677    1.5438    0.2633 C   0  0  0  0  0  0  0  0  0  0  0  0
    2.5614   -1.6954   -0.2719 C   0  0  0  0  0  0  0  0  0  0  0  0
   -0.7967   -0.0919   -0.2490 C   0  0  0  0  0  0  0  0  0  0  0  0
   -2.1870   -0.4846    0.0944 C   0  0  0  0  0  0  0  0  0  0  0  0
   -3.2538    0.5768   -0.0827 C   0  0  0  0  0  0  0  0  0  0  0  0
  1 10  1  0
  2 11  1  0
  3 10  2  0
  4 13  2  0
  5 14  1  0
  6 14  2  0
  7  8  1  0
  7 10  1  0
  8  9  1  0
  8 11  2  0
  9 12  2  0
 12 13  1  0
 13 14  1  0
M  END
>  <PUBCHEM_COMPOUND_CID>  (1) 
548

>  <PUBCHEM_CONFORMER_RMSD>  (1) 
0.6

>  <PUBCHEM_CONFORMER_DIVERSEORDER>  (1) 
1
55
69
63
71
70
15
59
57
36
49
45
37
72
58
25
61
27
14
38
40
42
54
62
52
18
9
21
30
31
26
10
60
47
65
16
23
56
44
48
20
8
4
46
35
50
19
66
41
13
39
12
24
53
6
17
32
43
64
3
22
68
2
67
7
33
34
51
28
11
29
5

>  <PUBCHEM_MMFF94_PARTIAL_CHARGES>  (1) 
20
1 -0.65
10 0.66
11 -0.07
12 -0.14
13 0.56
14 0.72
17 0.15
18 0.15
19 0.15
2 -0.53
20 0.5
21 0.45
22 0.5
3 -0.57
4 -0.57
5 -0.65
6 -0.57
7 0.2
8 -0.14
9 -0.15

>  <PUBCHEM_EFFECTIVE_ROTOR_COUNT>  (1) 
5

>  <PUBCHEM_PHARMACOPHORE_FEATURES>  (1) 
8
1 1 acceptor
1 2 donor
1 3 acceptor
1 4 acceptor
1 5 acceptor
1 6 acceptor
3 1 3 10 anion
3 5 6 14 anion

>  <PUBCHEM_HEAVY_ATOM_COUNT>  (1) 
14

>  <PUBCHEM_ATOM_DEF_STEREO_COUNT>  (1) 
0

>  <PUBCHEM_ATOM_UDEF_STEREO_COUNT>  (1) 
0

>  <PUBCHEM_BOND_DEF_STEREO_COUNT>  (1) 
0

>  <PUBCHEM_BOND_UDEF_STEREO_COUNT>  (1) 
2

>  <PUBCHEM_ISOTOPIC_ATOM_COUNT>  (1) 
0

>  <PUBCHEM_COMPONENT_COUNT>  (1) 
1

>  <PUBCHEM_CACTVS_TAUTO_COUNT>  (1) 
4

>  <PUBCHEM_CONFORMER_ID>  (1) 
0000022400000001

>  <PUBCHEM_MMFF94_ENERGY>  (1) 
22.2267

>  <PUBCHEM_FEATURE_SELFOVERLAP>  (1) 
40.724

>  <PUBCHEM_SHAPE_FINGERPRINT>  (1) 
10608611 8 18408604751621447669
12932764 1 18343032111434333663
13922767 16 18340200778613750806
14648413 74 18409450262893501306
15442244 35 18195531389358859617
17041 49 18196939855132477138
17041 50 18270411464342644590
18186145 218 18271250430558954653
18410436 195 18127408943674764982
20559304 39 18270685264175769614
20645477 70 18273501165062898151
20671657 1 18412549812115962164
20671657 53 18127418838952516918
21524375 3 17913489318526050004
21947302 44 18412545418090027088
22096605 113 18342735260516589325
2255824 54 18411703171009397542
22854114 111 18341896307058307333
230 275 18201718496218589640
23419403 2 17123909922505251688
23559900 14 18409727344313872879
305870 269 18340198704508361770
3248919 1 17749390420515851679
449060 62 18271533086446229133
7364860 26 18412546487901147086
74978 22 18339646646339120351
8050 44 18411411847699141717

>  <PUBCHEM_SHAPE_MULTIPOLES>  (1) 
252.9
6.55
2.58
0.83
6.26
0.08
0.11
-1.18
0.34
-2.81
0.15
-0.38
-0.19
0.49

>  <PUBCHEM_SHAPE_SELFOVERLAP>  (1) 
501.909

>  <PUBCHEM_SHAPE_VOLUME>  (1) 
147.6

>  <PUBCHEM_COORDINATE_TYPE>  (1) 
2
5
10

$$$$
