5491
     RDKit          3D

 22 23  0  0  0  0  0  0  0  0999 V2000
   -2.5261    2.0793    0.0487 O   0  0  0  0  0  0  0  0  0  0  0  0
    5.0556   -2.2309   -0.2579 O   0  0  0  0  0  0  0  0  0  0  0  0
    4.0691    2.4031    0.3227 O   0  0  0  0  0  0  0  0  0  0  0  0
   -6.0302   -1.1445    0.0157 O   0  0  0  0  0  0  0  0  0  0  0  0
   -1.9821   -0.2541    0.2380 C   0  0  0  0  0  0  0  0  0  0  0  0
    1.8681   -0.4724   -0.0866 C   0  0  0  0  0  0  0  0  0  0  0  0
   -2.9160    0.7738    0.1067 C   0  0  0  0  0  0  0  0  0  0  0  0
   -0.5560    0.0321    0.3179 C   0  0  0  0  0  0  0  0  0  0  0  0
    0.4266   -0.7713   -0.1503 C   0  0  0  0  0  0  0  0  0  0  0  0
    2.2821    0.8378    0.0895 C   0  0  0  0  0  0  0  0  0  0  0  0
    2.7814   -1.5076   -0.2040 C   0  0  0  0  0  0  0  0  0  0  0  0
   -2.4086   -1.5810    0.2943 C   0  0  0  0  0  0  0  0  0  0  0  0
    4.1460   -1.2248   -0.1439 C   0  0  0  0  0  0  0  0  0  0  0  0
    3.6467    1.1208    0.1499 C   0  0  0  0  0  0  0  0  0  0  0  0
   -4.2764    0.4747    0.0320 C   0  0  0  0  0  0  0  0  0  0  0  0
   -4.7027   -0.8523    0.0885 C   0  0  0  0  0  0  0  0  0  0  0  0
    4.5787    0.0895    0.0332 C   0  0  0  0  0  0  0  0  0  0  0  0
   -3.7688   -1.8801    0.2196 C   0  0  0  0  0  0  0  0  0  0  0  0
   -2.2539    2.6161   -1.2436 C   0  0  0  0  0  0  0  0  0  0  0  0
    6.4343   -1.8708   -0.1875 C   0  0  0  0  0  0  0  0  0  0  0  0
    3.0630    3.4086    0.4349 C   0  0  0  0  0  0  0  0  0  0  0  0
   -6.9305   -0.0458   -0.1178 C   0  0  0  0  0  0  0  0  0  0  0  0
  1  7  1  0
  1 19  1  0
  2 13  1  0
  2 20  1  0
  3 14  1  0
  3 21  1  0
  4 16  1  0
  4 22  1  0
  5  7  2  0
  5  8  1  0
  5 12  1  0
  6  9  1  0
  6 10  2  0
  6 11  1  0
  7 15  1  0
  8  9  2  0
 10 14  1  0
 11 13  2  0
 12 18  2  0
 13 17  1  0
 14 17  2  0
 15 16  2  0
 16 18  1  0
M  END
>  <PUBCHEM_COMPOUND_CID>  (1) 
5491

>  <PUBCHEM_CONFORMER_RMSD>  (1) 
0.8

>  <PUBCHEM_CONFORMER_DIVERSEORDER>  (1) 
3
7
1
9
5
10
4
2
6
8

>  <PUBCHEM_MMFF94_PARTIAL_CHARGES>  (1) 
30
1 -0.36
10 -0.15
11 -0.15
12 -0.15
13 0.08
14 0.08
15 -0.15
16 0.08
17 -0.15
18 -0.15
19 0.28
2 -0.36
20 0.28
21 0.28
22 0.28
23 0.15
24 0.15
25 0.15
26 0.15
27 0.15
28 0.15
29 0.15
3 -0.36
30 0.15
4 -0.36
5 0.03
6 0.03
7 0.08
8 -0.18
9 -0.18

>  <PUBCHEM_EFFECTIVE_ROTOR_COUNT>  (1) 
6

>  <PUBCHEM_PHARMACOPHORE_FEATURES>  (1) 
6
1 1 acceptor
1 2 acceptor
1 3 acceptor
1 4 acceptor
6 5 7 12 15 16 18 rings
6 6 10 11 13 14 17 rings

>  <PUBCHEM_HEAVY_ATOM_COUNT>  (1) 
22

>  <PUBCHEM_ATOM_DEF_STEREO_COUNT>  (1) 
0

>  <PUBCHEM_ATOM_UDEF_STEREO_COUNT>  (1) 
0

>  <PUBCHEM_BOND_DEF_STEREO_COUNT>  (1) 
0

>  <PUBCHEM_BOND_UDEF_STEREO_COUNT>  (1) 
1

>  <PUBCHEM_ISOTOPIC_ATOM_COUNT>  (1) 
0

>  <PUBCHEM_COMPONENT_COUNT>  (1) 
1

>  <PUBCHEM_CACTVS_TAUTO_COUNT>  (1) 
1

>  <PUBCHEM_CONFORMER_ID>  (1) 
0000157300000003

>  <PUBCHEM_MMFF94_ENERGY>  (1) 
104.0009

>  <PUBCHEM_FEATURE_SELFOVERLAP>  (1) 
30.449

>  <PUBCHEM_SHAPE_FINGERPRINT>  (1) 
10366900 7 17676493817485455330
10411042 1 18268713802148570046
11405975 8 18412549799120323210
12107183 9 17615122187784448010
12166972 35 18408046203809427884
12403259 226 18409444765604745076
12403259 415 18041271106610091677
12616971 3 17775560957424854727
12916754 54 18412547600091851105
13167823 11 18412543223420274298
13533116 47 18410293631229776566
14170010 4 18342455963705482952
14341114 176 18410015446314163084
15196674 1 18411138034864803393
15961568 22 17895757434423773252
17492 89 18338518654904881250
17844677 252 18341901774578204953
18222031 100 17022623078525765990
18681886 176 18343578530533652826
200 152 17988924461718265227
20645477 70 18343587322088965022
21065198 57 18411139147197899650
21133410 127 17824255127638167316
21236236 1 18341332189860537017
21267235 1 18411144610254037698
21315763 129 18413108333731150343
21315764 268 18409162216521921389
21709351 56 18342170038615380030
21792934 111 18410572886626611713
221357 26 18410012122162515268
221490 88 18410298021282445674
23402539 116 18411133650320366439
23557571 272 18410296878589283357
23559900 14 18410289237420230218
239999 70 18342461443741484742
29717793 49 18059859454136346607
3004659 81 18335138683019553194
350125 39 18411139138787111764
351380 180 18410292518775387075
3545911 37 18408324414431112789
4073 2 18114467880657545354
4214541 1 18410857611912058394
5104073 3 18411142454385879043
5281201 14 18411421700506755268
5283173 99 18187072924518118189
542803 24 13695586650551204183
59755656 215 18187928335325941171
67856867 119 18271522104446682784
7495541 125 17489302031323204642
77779 3 18411983580554357970
9709674 26 18335987574763282234
9971528 1 18040718099453258620

>  <PUBCHEM_SHAPE_MULTIPOLES>  (1) 
429.27
15.26
2.9
0.71
4.63
2.19
0.08
-5.57
0.4
-2.76
0.1
0.1
0.21
1.16

>  <PUBCHEM_SHAPE_SELFOVERLAP>  (1) 
908.411

>  <PUBCHEM_SHAPE_VOLUME>  (1) 
242.6

>  <PUBCHEM_COORDINATE_TYPE>  (1) 
2
5
10

$$$$
