5495
     RDKit          3D

 22 23  0  0  0  0  0  0  0  0999 V2000
   -0.1074    0.7260   -1.7664 S   0  0  0  0  0  0  0  0  0  0  0  0
    2.7820    1.2772   -0.0180 O   0  0  0  0  0  0  0  0  0  0  0  0
   -0.9741   -3.4541    1.0048 O   0  0  0  0  0  0  0  0  0  0  0  0
    3.3367   -1.9726    0.7621 O   0  0  0  0  0  0  0  0  0  0  0  0
    1.7048   -0.7691   -0.4056 N   0  0  0  0  0  0  0  0  0  0  0  0
    1.1770   -2.6822    0.8692 N   0  0  0  0  0  0  0  0  0  0  0  0
   -2.0735   -1.4753   -0.5830 C   0  0  0  0  0  0  0  0  0  0  0  0
   -0.5941   -1.4862   -0.2859 C   0  0  0  0  0  0  0  0  0  0  0  0
    0.3478   -0.6310   -0.7456 C   0  0  0  0  0  0  0  0  0  0  0  0
   -2.4718   -2.7678   -1.2808 C   0  0  0  0  0  0  0  0  0  0  0  0
   -2.8713   -1.2698    0.6977 C   0  0  0  0  0  0  0  0  0  0  0  0
   -0.1686   -2.6296    0.5780 C   0  0  0  0  0  0  0  0  0  0  0  0
    2.6731    0.1977   -0.9335 C   0  0  0  0  0  0  0  0  0  0  0  0
    2.1609   -1.8078    0.4262 C   0  0  0  0  0  0  0  0  0  0  0  0
   -1.2009    1.5404   -0.6239 C   0  0  0  0  0  0  0  0  0  0  0  0
    3.6839    2.2701   -0.4879 C   0  0  0  0  0  0  0  0  0  0  0  0
   -0.7220    1.9825    0.6113 C   0  0  0  0  0  0  0  0  0  0  0  0
   -2.5418    1.7406   -0.9591 C   0  0  0  0  0  0  0  0  0  0  0  0
    3.7569    3.3903    0.5277 C   0  0  0  0  0  0  0  0  0  0  0  0
   -1.5796    2.6213    1.5069 C   0  0  0  0  0  0  0  0  0  0  0  0
   -3.3995    2.3795   -0.0637 C   0  0  0  0  0  0  0  0  0  0  0  0
   -2.9183    2.8199    1.1694 C   0  0  0  0  0  0  0  0  0  0  0  0
  1  9  1  0
  1 15  1  0
  2 13  1  0
  2 16  1  0
  3 12  2  0
  4 14  2  0
  5  9  1  0
  5 13  1  0
  5 14  1  0
  6 12  1  0
  6 14  1  0
  7  8  1  0
  7 10  1  0
  7 11  1  0
  8  9  2  0
  8 12  1  0
 15 17  2  0
 15 18  1  0
 16 19  1  0
 17 20  1  0
 18 21  2  0
 20 22  2  0
 21 22  1  0
M  END
>  <PUBCHEM_COMPOUND_CID>  (1) 
5495

>  <PUBCHEM_CONFORMER_RMSD>  (1) 
0.8

>  <PUBCHEM_CONFORMER_DIVERSEORDER>  (1) 
1
15
4
8
2
17
13
11
7
6
20
16
18
9
21
14
10
19
3
12
5

>  <PUBCHEM_MMFF94_PARTIAL_CHARGES>  (1) 
25
1 -0.2
12 0.62
13 0.58
14 0.69
15 0.1
16 0.28
17 -0.15
18 -0.15
2 -0.56
20 -0.15
21 -0.15
22 -0.15
3 -0.57
32 0.37
35 0.15
36 0.15
4 -0.57
40 0.15
41 0.15
42 0.15
5 -0.47
6 -0.49
7 0.14
8 -0.12
9 0.21

>  <PUBCHEM_EFFECTIVE_ROTOR_COUNT>  (1) 
6

>  <PUBCHEM_PHARMACOPHORE_FEATURES>  (1) 
7
1 2 acceptor
1 3 acceptor
1 4 acceptor
1 6 donor
3 7 10 11 hydrophobe
6 15 17 18 20 21 22 rings
6 5 6 8 9 12 14 rings

>  <PUBCHEM_HEAVY_ATOM_COUNT>  (1) 
22

>  <PUBCHEM_ATOM_DEF_STEREO_COUNT>  (1) 
0

>  <PUBCHEM_ATOM_UDEF_STEREO_COUNT>  (1) 
0

>  <PUBCHEM_BOND_DEF_STEREO_COUNT>  (1) 
0

>  <PUBCHEM_BOND_UDEF_STEREO_COUNT>  (1) 
0

>  <PUBCHEM_ISOTOPIC_ATOM_COUNT>  (1) 
0

>  <PUBCHEM_COMPONENT_COUNT>  (1) 
1

>  <PUBCHEM_CACTVS_TAUTO_COUNT>  (1) 
3

>  <PUBCHEM_CONFORMER_ID>  (1) 
0000157700000001

>  <PUBCHEM_MMFF94_ENERGY>  (1) 
63.7356

>  <PUBCHEM_FEATURE_SELFOVERLAP>  (1) 
35.522

>  <PUBCHEM_SHAPE_FINGERPRINT>  (1) 
10006869 2 18413111671448260179
10930396 42 16972758263839503456
1100329 8 18338232635999736968
11582403 64 15939739322168568853
12507560 14 17616527363586398022
12633257 1 17538300439954381585
12788726 201 17979353384982179568
13027679 85 17834394905773068293
13140716 1 18335422305263464880
13965767 371 17694554434354619075
14081887 123 18268707401613233272
14787075 74 18053939829746022157
14955137 171 17904214628655886370
16945 1 17897727797382118526
20510252 161 18194681694699281284
20600515 1 17614571762108675020
2334 1 18334577944842381662
23419403 2 15739843774511374967
23558518 356 18339370772152855324
283562 15 18121780801239356748
350125 39 18335707135047399196
469060 322 17824841154876980353
474 4 17909830933913370553
81228 2 18193297387868725812

>  <PUBCHEM_SHAPE_MULTIPOLES>  (1) 
429.03
5.73
4.89
1.36
4.41
0.04
0.15
-3.69
-0.22
-0.98
-1.71
-0.42
-0.13
-0.87

>  <PUBCHEM_SHAPE_SELFOVERLAP>  (1) 
882.646

>  <PUBCHEM_SHAPE_VOLUME>  (1) 
247

>  <PUBCHEM_COORDINATE_TYPE>  (1) 
2
5
10

$$$$
