5503
     RDKit          3D

 21 22  0  0  0  0  0  0  0  0999 V2000
   -1.9088   -2.0427   -0.1408 S   0  0  0  0  0  0  0  0  0  0  0  0
    0.6255   -0.5986   -1.2080 O   0  0  0  0  0  0  0  0  0  0  0  0
   -1.6566   -2.3221   -1.5414 O   0  0  0  0  0  0  0  0  0  0  0  0
   -2.5998   -3.0103    0.6891 O   0  0  0  0  0  0  0  0  0  0  0  0
    2.8588   -0.1246    0.3545 N   0  0  0  0  0  0  0  0  0  0  0  0
    1.7155   -0.7441    0.8273 N   0  0  0  0  0  0  0  0  0  0  0  0
   -0.4443   -1.5898    0.6156 N   0  0  0  0  0  0  0  0  0  0  0  0
    5.1509    1.9693   -0.2686 C   0  0  0  0  0  0  0  0  0  0  0  0
    5.4446    0.6171   -0.9146 C   0  0  0  0  0  0  0  0  0  0  0  0
    3.7074    2.1778    0.1806 C   0  0  0  0  0  0  0  0  0  0  0  0
    5.3676   -0.5295    0.0889 C   0  0  0  0  0  0  0  0  0  0  0  0
    3.1354    1.0989    1.1042 C   0  0  0  0  0  0  0  0  0  0  0  0
    3.9596   -1.0882    0.3171 C   0  0  0  0  0  0  0  0  0  0  0  0
    0.6549   -0.9357   -0.0279 C   0  0  0  0  0  0  0  0  0  0  0  0
   -2.8069   -0.5218   -0.0763 C   0  0  0  0  0  0  0  0  0  0  0  0
   -2.6936    0.3751   -1.1246 C   0  0  0  0  0  0  0  0  0  0  0  0
   -3.6069   -0.2552    1.0215 C   0  0  0  0  0  0  0  0  0  0  0  0
   -4.2137    1.8603    0.0249 C   0  0  0  0  0  0  0  0  0  0  0  0
   -3.4024    1.5755   -1.0734 C   0  0  0  0  0  0  0  0  0  0  0  0
   -4.3158    0.9449    1.0724 C   0  0  0  0  0  0  0  0  0  0  0  0
   -4.9714    3.1436    0.0795 C   0  0  0  0  0  0  0  0  0  0  0  0
  1  3  2  0
  1  4  2  0
  1  7  1  0
  1 15  1  0
  2 14  2  0
  5  6  1  0
  5 12  1  0
  5 13  1  0
  6 14  1  0
  7 14  1  0
  8  9  1  0
  8 10  1  0
  9 11  1  0
 10 12  1  0
 11 13  1  0
 15 16  2  0
 15 17  1  0
 16 19  1  0
 17 20  2  0
 18 19  2  0
 18 20  1  0
 18 21  1  0
M  END
>  <PUBCHEM_COMPOUND_CID>  (1) 
5503

>  <PUBCHEM_CONFORMER_RMSD>  (1) 
0.8

>  <PUBCHEM_CONFORMER_DIVERSEORDER>  (1) 
1
47
10
32
18
58
60
19
15
56
27
59
62
52
22
39
25
36
4
37
46
24
9
13
44
48
11
7
50
40
51
61
41
2
63
49
3
55
31
54
43
34
42
21
29
30
16
26
57
14
6
38
23
8
17
45
5
20
53
28
35
33
12

>  <PUBCHEM_MMFF94_PARTIAL_CHARGES>  (1) 
23
1 1.45
12 0.27
13 0.27
14 0.87
15 -0.01
16 -0.15
17 -0.15
18 -0.14
19 -0.15
2 -0.57
20 -0.15
21 0.14
3 -0.65
34 0.37
35 0.42
36 0.15
37 0.15
38 0.15
39 0.15
4 -0.65
5 -0.55
6 -0.42
7 -0.79

>  <PUBCHEM_EFFECTIVE_ROTOR_COUNT>  (1) 
6.4

>  <PUBCHEM_PHARMACOPHORE_FEATURES>  (1) 
7
1 2 acceptor
1 3 acceptor
1 4 acceptor
1 6 donor
1 7 donor
6 15 16 17 18 19 20 rings
7 5 8 9 10 11 12 13 rings

>  <PUBCHEM_HEAVY_ATOM_COUNT>  (1) 
21

>  <PUBCHEM_ATOM_DEF_STEREO_COUNT>  (1) 
0

>  <PUBCHEM_ATOM_UDEF_STEREO_COUNT>  (1) 
0

>  <PUBCHEM_BOND_DEF_STEREO_COUNT>  (1) 
0

>  <PUBCHEM_BOND_UDEF_STEREO_COUNT>  (1) 
0

>  <PUBCHEM_ISOTOPIC_ATOM_COUNT>  (1) 
0

>  <PUBCHEM_COMPONENT_COUNT>  (1) 
1

>  <PUBCHEM_CACTVS_TAUTO_COUNT>  (1) 
3

>  <PUBCHEM_CONFORMER_ID>  (1) 
0000157F00000001

>  <PUBCHEM_MMFF94_ENERGY>  (1) 
22.019

>  <PUBCHEM_FEATURE_SELFOVERLAP>  (1) 
35.586

>  <PUBCHEM_SHAPE_FINGERPRINT>  (1) 
10447042 23 9223221932407050504
11370993 144 18334294228008780262
11405975 8 18408878551734395090
11595378 159 16370996387322794180
12107183 9 18118957001981764226
12390115 104 18340216202337169993
12596602 18 15574722412534076144
12633257 1 18262502711674403826
13073987 5 18262233439116727058
13103583 49 12829783851816837413
13544653 18 8934993793695766835
13911882 115 11963383025756758808
13944108 23 17547851850511362057
13994607 96 18059859463380317785
14123255 352 18410575059109767365
1420 369 8934995996919271584
14251764 75 18197223538419496689
14848178 5 9655578491682453616
15239154 128 18335137635411334772
17349148 13 11600006574522144470
17834072 32 18410854330763090829
17844677 252 18264777721712850594
17959699 21 18410014351487983936
20621476 91 11314605280232818884
20645477 56 18408326570821466343
21033648 29 18410568487667653160
22182937 141 18411136957080914561
23227448 37 18410011069837414621
23402655 69 18412544340892025296
23403322 49 9799683801560083257
23559900 14 18201158742148630606
25122255 55 8574446343553266520
27216 239 18334296466240447801
2838139 119 18340198592781612181
339767 52 9511463277683884728
5104073 3 18114174268398142346
543358 83 18410573968884471514
57724786 102 18194684757052953481
59682541 52 16199589039659311997
633830 44 18261386772071338858
7808743 9 18408885144081965353
7970288 3 9366474016935864597
90127 26 18335710472321624898

>  <PUBCHEM_SHAPE_MULTIPOLES>  (1) 
403.47
13.12
3.01
1.15
9.91
0.17
-0.15
8.66
0.23
-2.81
-0.05
-0.45
-0.1
-0.07

>  <PUBCHEM_SHAPE_SELFOVERLAP>  (1) 
813.597

>  <PUBCHEM_SHAPE_VOLUME>  (1) 
234.7

>  <PUBCHEM_COORDINATE_TYPE>  (1) 
2
5
10

$$$$
