5511
     RDKit          3D

 18 19  0  0  1  0  0  0  0  0999 V2000
    1.3081   -2.8877   -0.1395 O   0  0  0  0  0  0  0  0  0  0  0  0
   -2.4772   -0.1331   -0.3328 N   0  0  0  0  0  0  0  0  0  0  0  0
   -3.0248    0.6844   -1.4245 C   0  0  0  0  0  0  0  0  0  0  0  0
   -2.6224    0.5448    0.9630 C   0  0  0  0  0  0  0  0  0  0  0  0
   -4.5069    0.9871   -1.1974 C   0  0  0  0  0  0  0  0  0  0  0  0
   -4.0911    0.8431    1.2681 C   0  0  0  0  0  0  0  0  0  0  0  0
   -4.7351    1.6580    0.1521 C   0  0  0  0  0  0  0  0  0  0  0  0
   -1.0730   -0.4532   -0.5882 C   0  0  0  0  0  0  0  0  0  0  0  0
   -0.5098   -1.4225    0.4612 C   0  0  0  0  0  0  0  0  0  0  0  0
   -1.3122   -2.7266    0.5294 C   0  0  0  0  0  0  0  0  0  0  0  0
    0.9461   -1.7401    0.1173 C   0  0  0  0  0  0  0  0  0  0  0  0
    1.9556   -0.6417    0.0755 C   0  0  0  0  0  0  0  0  0  0  0  0
    1.7785    0.4481    0.8972 C   0  0  0  0  0  0  0  0  0  0  0  0
    3.0255   -0.7612   -0.7818 C   0  0  0  0  0  0  0  0  0  0  0  0
    2.7225    1.4743    0.8592 C   0  0  0  0  0  0  0  0  0  0  0  0
    3.9695    0.2650   -0.8199 C   0  0  0  0  0  0  0  0  0  0  0  0
    3.8179    1.3828    0.0005 C   0  0  0  0  0  0  0  0  0  0  0  0
    4.8288    2.4787   -0.0395 C   0  0  0  0  0  0  0  0  0  0  0  0
  1 11  2  0
  2  3  1  0
  2  4  1  0
  2  8  1  0
  3  5  1  0
  4  6  1  0
  5  7  1  0
  6  7  1  0
  8  9  1  0
  9 10  1  0
  9 11  1  0
 11 12  1  0
 12 13  2  0
 12 14  1  0
 13 15  1  0
 14 16  2  0
 15 17  2  0
 16 17  1  0
 17 18  1  0
M  END
>  <PUBCHEM_COMPOUND_CID>  (1) 
5511

>  <PUBCHEM_CONFORMER_RMSD>  (1) 
0.6

>  <PUBCHEM_CONFORMER_DIVERSEORDER>  (1) 
1
45
3
22
32
26
44
11
5
13
46
41
37
48
7
39
21
29
20
28
19
23
36
4
15
43
17
14
18
35
34
2
27
9
25
10
38
40
16
30
24
6
33
47
42
31
12
8

>  <PUBCHEM_MMFF94_PARTIAL_CHARGES>  (1) 
18
1 -0.57
11 0.42
12 0.09
13 -0.15
14 -0.15
15 -0.15
16 -0.15
17 -0.14
18 0.14
2 -0.81
3 0.27
35 0.15
36 0.15
37 0.15
38 0.15
4 0.27
8 0.27
9 0.06

>  <PUBCHEM_EFFECTIVE_ROTOR_COUNT>  (1) 
5.2

>  <PUBCHEM_PHARMACOPHORE_FEATURES>  (1) 
5
1 1 acceptor
1 10 hydrophobe
1 2 cation
6 12 13 14 15 16 17 rings
6 2 3 4 5 6 7 rings

>  <PUBCHEM_HEAVY_ATOM_COUNT>  (1) 
18

>  <PUBCHEM_ATOM_DEF_STEREO_COUNT>  (1) 
0

>  <PUBCHEM_ATOM_UDEF_STEREO_COUNT>  (1) 
1

>  <PUBCHEM_BOND_DEF_STEREO_COUNT>  (1) 
0

>  <PUBCHEM_BOND_UDEF_STEREO_COUNT>  (1) 
0

>  <PUBCHEM_ISOTOPIC_ATOM_COUNT>  (1) 
0

>  <PUBCHEM_COMPONENT_COUNT>  (1) 
1

>  <PUBCHEM_CACTVS_TAUTO_COUNT>  (1) 
2

>  <PUBCHEM_CONFORMER_ID>  (1) 
0000158700000001

>  <PUBCHEM_MMFF94_ENERGY>  (1) 
34.5738

>  <PUBCHEM_FEATURE_SELFOVERLAP>  (1) 
25.371

>  <PUBCHEM_SHAPE_FINGERPRINT>  (1) 
10498660 4 18408881854047339309
11543360 7 16415472783290047125
11796584 16 13254796806830965205
12390115 104 18265348376684763100
12403259 118 17022904579372773757
12730499 353 18409737231513295755
12788726 201 17981023525622361671
13464514 151 18272377460047607218
13544653 18 9367348132615340794
13583140 156 15791996922467867293
14123255 52 18408885139612697185
1420 369 8935001472986834124
14528608 73 18341604889986914661
14848178 96 18341610447189604088
15342168 16 18409169892161281197
15352361 1 9511457818685414949
1741750 31 18410571833657977978
17834072 32 18264207075009762500
1798214 55 18408041818621126652
1813 80 17339284407132072230
18186145 218 18413671292232334214
18219364 16 18337115652107598865
193927 3 11095885990170188805
19784866 34 18412824694185991576
19862831 5 17561362863913887193
204376 136 18334857216827884283
20645477 56 18187648020063539150
21524375 3 18410284805056730650
21864079 5 18269557148176871145
22079108 93 18411989065997618067
22182937 141 18339084911829431731
2255824 54 18126279744969782207
231179 274 18260265239766155296
23402655 69 17917712417976316236
23559900 14 18272377486540104166
25 1 18413392020880035434
2637199 183 18201445739677193910
283562 15 18048028859567553867
3082319 5 16917062252835177813
341906 21 16153709757075118685
4028521 119 18342454854802385389
474 4 18413103961565427145
5104073 3 18259985976428694442
633830 44 18272093734465712181
6442390 28 18334586771106228603
76465 3 9295298218111014740
7808743 9 18188773988901387764
81228 2 17899698148221343099

>  <PUBCHEM_SHAPE_MULTIPOLES>  (1) 
359.58
9.91
2.63
1.17
2.03
1.35
-0.08
-8.48
-1.09
-1.15
0.28
0.84
-0.26
0.48

>  <PUBCHEM_SHAPE_SELFOVERLAP>  (1) 
741.142

>  <PUBCHEM_SHAPE_VOLUME>  (1) 
207.3

>  <PUBCHEM_COORDINATE_TYPE>  (1) 
2
5
10

$$$$
