5538
     RDKit          3D

 22 22  0  0  0  0  0  0  0  0999 V2000
    7.9771    1.3605    1.2056 O   0  0  0  0  0  0  0  0  0  0  0  0
    8.0179   -0.1979   -0.4553 O   0  0  0  0  0  0  0  0  0  0  0  0
   -4.8985   -0.8278    0.4509 C   0  0  0  0  0  0  0  0  0  0  0  0
   -6.2893   -0.1446    0.3417 C   0  0  0  0  0  0  0  0  0  0  0  0
   -6.2320    1.3333    0.6841 C   0  0  0  0  0  0  0  0  0  0  0  0
   -3.7886    0.0349   -0.1949 C   0  0  0  0  0  0  0  0  0  0  0  0
   -5.2937    2.0538   -0.2721 C   0  0  0  0  0  0  0  0  0  0  0  0
   -3.9891    1.3313   -0.5415 C   0  0  0  0  0  0  0  0  0  0  0  0
   -5.0440   -2.2043   -0.2428 C   0  0  0  0  0  0  0  0  0  0  0  0
   -4.5692   -1.0620    1.9431 C   0  0  0  0  0  0  0  0  0  0  0  0
   -2.5083   -0.6272   -0.3835 C   0  0  0  0  0  0  0  0  0  0  0  0
   -2.9826    2.2290   -1.2236 C   0  0  0  0  0  0  0  0  0  0  0  0
   -1.3295   -0.0282   -0.1481 C   0  0  0  0  0  0  0  0  0  0  0  0
   -0.0053   -0.6280   -0.3145 C   0  0  0  0  0  0  0  0  0  0  0  0
    0.0542   -2.0591   -0.7977 C   0  0  0  0  0  0  0  0  0  0  0  0
    1.1560    0.0154   -0.0646 C   0  0  0  0  0  0  0  0  0  0  0  0
    2.5129   -0.4842   -0.1962 C   0  0  0  0  0  0  0  0  0  0  0  0
    3.5908    0.2676    0.0880 C   0  0  0  0  0  0  0  0  0  0  0  0
    4.9981   -0.1366   -0.0147 C   0  0  0  0  0  0  0  0  0  0  0  0
    5.2796   -1.5474   -0.4638 C   0  0  0  0  0  0  0  0  0  0  0  0
    5.9399    0.7689    0.3186 C   0  0  0  0  0  0  0  0  0  0  0  0
    7.4036    0.5527    0.2815 C   0  0  0  0  0  0  0  0  0  0  0  0
  1 22  1  0
  2 22  2  0
  3  4  1  0
  3  6  1  0
  3  9  1  0
  3 10  1  0
  4  5  1  0
  5  7  1  0
  6  8  2  0
  6 11  1  0
  7  8  1  0
  8 12  1  0
 11 13  2  0
 13 14  1  0
 14 15  1  0
 14 16  2  0
 16 17  1  0
 17 18  2  0
 18 19  1  0
 19 20  1  0
 19 21  2  0
 21 22  1  0
M  END
>  <PUBCHEM_COMPOUND_CID>  (1) 
5538

>  <PUBCHEM_CONFORMER_RMSD>  (1) 
0.8

>  <PUBCHEM_CONFORMER_DIVERSEORDER>  (1) 
1
13
9
8
7
6
4
3
11
10
2
16
15
14
5
12

>  <PUBCHEM_MMFF94_PARTIAL_CHARGES>  (1) 
25
1 -0.65
11 -0.15
12 0.14
13 -0.15
14 -0.14
15 0.14
16 -0.15
17 -0.15
18 -0.15
19 -0.14
2 -0.57
20 0.14
21 -0.14
22 0.71
3 0.14
35 0.15
39 0.15
43 0.15
44 0.15
45 0.15
49 0.15
50 0.5
6 -0.14
7 0.14
8 -0.28

>  <PUBCHEM_EFFECTIVE_ROTOR_COUNT>  (1) 
5.8

>  <PUBCHEM_PHARMACOPHORE_FEATURES>  (1) 
7
1 1 acceptor
1 15 hydrophobe
1 2 acceptor
1 20 hydrophobe
3 1 2 22 anion
3 3 9 10 hydrophobe
6 3 4 5 6 7 8 rings

>  <PUBCHEM_HEAVY_ATOM_COUNT>  (1) 
22

>  <PUBCHEM_ATOM_DEF_STEREO_COUNT>  (1) 
0

>  <PUBCHEM_ATOM_UDEF_STEREO_COUNT>  (1) 
0

>  <PUBCHEM_BOND_DEF_STEREO_COUNT>  (1) 
0

>  <PUBCHEM_BOND_UDEF_STEREO_COUNT>  (1) 
4

>  <PUBCHEM_ISOTOPIC_ATOM_COUNT>  (1) 
0

>  <PUBCHEM_COMPONENT_COUNT>  (1) 
1

>  <PUBCHEM_CACTVS_TAUTO_COUNT>  (1) 
1

>  <PUBCHEM_CONFORMER_ID>  (1) 
000015A200000001

>  <PUBCHEM_MMFF94_ENERGY>  (1) 
57.506

>  <PUBCHEM_FEATURE_SELFOVERLAP>  (1) 
35.578

>  <PUBCHEM_SHAPE_FINGERPRINT>  (1) 
10 15 18408041805625286114
10299344 5 16732702749319027312
10369192 42 18060137639210216085
10411042 1 18048599511473347115
11315181 36 17095245847600227043
12091667 2 18408603677768886191
125118 31 18411139152194987144
12596602 18 18186516584260298544
13073987 5 18114458964363083922
13288520 33 9007054669695188511
13403585 85 18334012783218296421
13964095 4 11743843559832487728
14251764 18 18040433296172194750
14844126 61 17749682899905943227
14849402 71 17459482207248936444
14933364 13 18411700980791990436
15183329 4 13398631636758458276
15461852 350 17775559862825366501
15716309 27 14634868652208420552
17093844 174 18408884044997202769
17780758 139 17167867474271462427
17844677 252 18409174306949753124
18006028 8 11818994084749090758
18927931 339 18114188544991103599
19377110 9 16805597049893460672
19489759 90 17676488350050115833
20281389 69 18412542124688965640
21033648 29 18271794744348871608
23402539 116 17967814959926112487
4073 2 18187372038472027666
5104073 3 18115306661609922522
5758199 1 17748545948783970546
59682541 35 18410014372772968555
636775 72 18270963441293785577
9953998 17 18333733511897444761

>  <PUBCHEM_SHAPE_MULTIPOLES>  (1) 
441.01
22.91
1.98
1.03
39.07
0.1
0.29
5.41
5.11
-2.55
-0.38
-0.65
-0.02
1.55

>  <PUBCHEM_SHAPE_SELFOVERLAP>  (1) 
887.124

>  <PUBCHEM_SHAPE_VOLUME>  (1) 
258.7

>  <PUBCHEM_COORDINATE_TYPE>  (1) 
2
5
10

$$$$
