554
     RDKit          3D

 10 10  0  0  1  0  0  0  0  0999 V2000
    1.6324    0.5175    1.1241 O   0  0  0  0  0  0  0  0  0  0  0  0
    2.5368   -0.6414   -0.6291 O   0  0  0  0  0  0  0  0  0  0  0  0
   -0.9177   -0.6311    0.0346 N   0  0  0  0  0  0  0  0  0  0  0  0
    0.2744   -0.0218   -0.7205 C   0  0  0  0  0  0  0  0  0  0  0  0
   -1.3405    0.4771    0.9931 C   0  0  0  0  0  0  0  0  0  0  0  0
   -0.0990    1.4488   -0.8768 C   0  0  0  0  0  0  0  0  0  0  0  0
   -1.1020    1.7674    0.2281 C   0  0  0  0  0  0  0  0  0  0  0  0
   -2.0510   -0.9674   -0.9362 C   0  0  0  0  0  0  0  0  0  0  0  0
   -0.5462   -1.8986    0.7857 C   0  0  0  0  0  0  0  0  0  0  0  0
    1.6128   -0.0506   -0.0029 C   0  0  0  0  0  0  0  0  0  0  0  0
  1 10  1  0
  2 10  2  0
  3  4  1  0
  3  5  1  0
  3  8  1  0
  3  9  1  0
  4  6  1  0
  4 10  1  0
  5  7  1  0
  6  7  1  0
M  CHG  2   1  -1   3   1
M  END
>  <PUBCHEM_COMPOUND_CID>  (1) 
554

>  <PUBCHEM_CONFORMER_RMSD>  (1) 
0.4

>  <PUBCHEM_CONFORMER_DIVERSEORDER>  (1) 
4
3
2
1
5
6
7

>  <PUBCHEM_MMFF94_PARTIAL_CHARGES>  (1) 
8
1 -0.9
10 0.91
2 -0.9
3 -1.01
4 0.4
5 0.5
8 0.5
9 0.5

>  <PUBCHEM_EFFECTIVE_ROTOR_COUNT>  (1) 
2

>  <PUBCHEM_PHARMACOPHORE_FEATURES>  (1) 
5
1 1 acceptor
1 2 acceptor
1 3 cation
3 1 2 10 anion
5 3 4 5 6 7 rings

>  <PUBCHEM_HEAVY_ATOM_COUNT>  (1) 
10

>  <PUBCHEM_ATOM_DEF_STEREO_COUNT>  (1) 
0

>  <PUBCHEM_ATOM_UDEF_STEREO_COUNT>  (1) 
1

>  <PUBCHEM_BOND_DEF_STEREO_COUNT>  (1) 
0

>  <PUBCHEM_BOND_UDEF_STEREO_COUNT>  (1) 
0

>  <PUBCHEM_ISOTOPIC_ATOM_COUNT>  (1) 
0

>  <PUBCHEM_COMPONENT_COUNT>  (1) 
1

>  <PUBCHEM_CACTVS_TAUTO_COUNT>  (1) 
1

>  <PUBCHEM_CONFORMER_ID>  (1) 
0000022A00000004

>  <PUBCHEM_MMFF94_ENERGY>  (1) 
30.569

>  <PUBCHEM_FEATURE_SELFOVERLAP>  (1) 
25.425

>  <PUBCHEM_SHAPE_FINGERPRINT>  (1) 
12423570 1 10059908619740197373
13024252 1 12468650433945813596
137420 1 15590005598289839717
16945 1 17987799601050875413
18185500 45 18042696180790127314
21040471 1 18049720715719580892
241688 4 18412544292866630953
24536 1 18265342891636882158
29004967 10 17984128529294324407
369184 2 16200144361845377110
5084963 1 18270686363465799304
54338 74 18261100906999553257

>  <PUBCHEM_SHAPE_MULTIPOLES>  (1) 
189.08
2.47
1.76
1.13
1.11
0.03
0.06
-0.5
-0.26
-0.66
0.13
-0.13
0
-0.09

>  <PUBCHEM_SHAPE_SELFOVERLAP>  (1) 
373.209

>  <PUBCHEM_SHAPE_VOLUME>  (1) 
115

>  <PUBCHEM_COORDINATE_TYPE>  (1) 
2
5
10

$$$$
