5542
     RDKit          3D

 15 14  0  0  0  0  0  0  0  0999 V2000
    7.7281    0.3840   -0.6627 O   0  0  0  0  0  0  0  0  0  0  0  0
    4.7625    0.1757    0.5659 N   0  0  0  0  0  0  0  0  0  0  0  0
    5.7681    0.7728   -0.0986 N   0  0  0  0  0  0  0  0  0  0  0  0
    6.9277    0.3208    0.2762 N   0  0  0  0  0  0  0  0  0  0  0  0
   -5.6932    0.7761   -0.3425 C   0  0  0  0  0  0  0  0  0  0  0  0
   -7.0347    0.2210    0.1432 C   0  0  0  0  0  0  0  0  0  0  0  0
   -4.6399   -0.2844   -0.4846 C   0  0  0  0  0  0  0  0  0  0  0  0
   -8.1043    1.2923    0.3061 C   0  0  0  0  0  0  0  0  0  0  0  0
   -3.4825   -0.2810    0.1936 C   0  0  0  0  0  0  0  0  0  0  0  0
   -2.4292   -1.3401    0.0497 C   0  0  0  0  0  0  0  0  0  0  0  0
   -1.1284   -0.7617   -0.4283 C   0  0  0  0  0  0  0  0  0  0  0  0
    0.0183   -0.8430    0.2634 C   0  0  0  0  0  0  0  0  0  0  0  0
    1.2671   -0.2862   -0.2068 C   0  0  0  0  0  0  0  0  0  0  0  0
    2.4055   -0.3734    0.4922 C   0  0  0  0  0  0  0  0  0  0  0  0
    3.6349    0.2270   -0.0669 C   0  0  0  0  0  0  0  0  0  0  0  0
  1  4  2  0
  2  3  1  0
  2 15  2  0
  3  4  1  0
  5  6  1  0
  5  7  1  0
  6  8  1  0
  7  9  2  0
  9 10  1  0
 10 11  1  0
 11 12  2  0
 12 13  1  0
 13 14  2  0
 14 15  1  0
M  END
>  <PUBCHEM_COMPOUND_CID>  (1) 
5542

>  <PUBCHEM_CONFORMER_RMSD>  (1) 
0.8

>  <PUBCHEM_CONFORMER_DIVERSEORDER>  (1) 
2
46
42
6
30
35
19
49
36
25
21
38
39
32
7
47
9
40
41
43
17
23
22
18
37
45
44
14
15
31
26
29
48
3
16
12
10
28
34
13
4
27
24
33
20
1
5
8
11

>  <PUBCHEM_MMFF94_PARTIAL_CHARGES>  (1) 
21
1 -0.16
10 0.28
11 -0.29
12 -0.15
13 -0.15
14 -0.14
15 0.38
2 -0.5
20 0.15
24 0.15
27 0.15
28 0.15
29 0.15
3 -0.13
30 0.15
31 0.06
32 0.36
4 -0.01
5 0.14
7 -0.29
9 -0.29

>  <PUBCHEM_EFFECTIVE_ROTOR_COUNT>  (1) 
8

>  <PUBCHEM_PHARMACOPHORE_FEATURES>  (1) 
2
1 2 acceptor
1 8 hydrophobe

>  <PUBCHEM_HEAVY_ATOM_COUNT>  (1) 
15

>  <PUBCHEM_ATOM_DEF_STEREO_COUNT>  (1) 
0

>  <PUBCHEM_ATOM_UDEF_STEREO_COUNT>  (1) 
0

>  <PUBCHEM_BOND_DEF_STEREO_COUNT>  (1) 
0

>  <PUBCHEM_BOND_UDEF_STEREO_COUNT>  (1) 
4

>  <PUBCHEM_ISOTOPIC_ATOM_COUNT>  (1) 
0

>  <PUBCHEM_COMPONENT_COUNT>  (1) 
1

>  <PUBCHEM_CACTVS_TAUTO_COUNT>  (1) 
2

>  <PUBCHEM_CONFORMER_ID>  (1) 
000015A600000002

>  <PUBCHEM_MMFF94_ENERGY>  (1) 
9.4551

>  <PUBCHEM_FEATURE_SELFOVERLAP>  (1) 
10.148

>  <PUBCHEM_SHAPE_FINGERPRINT>  (1) 
10354089 29 17385723590700516623
106641 1 15068627101731011561
12091667 2 18343020021660622887
12714333 28 17632576050581392827
13177829 20 15140967270251964237
13288520 33 9871749101117538755
13533116 47 18339071593500493666
13964095 4 13254800123479049843
13968360 50 15410901734226024468
14123256 10 12895072916476866629
1420 363 11530477822794529378
14251764 18 18040712576220410603
14251764 46 18410575084663117898
14729087 3 18413386527991371265
15048467 5 18408884040216984027
155225 1 18341895153068463201
15716309 27 12540695929071437787
15778101 99 18410856586027207083
17834072 8 17489587878623750858
17834076 25 18410009948618893639
18006028 8 8286199453109616743
20281389 69 18260261940957134176
20526848 3 18411140225677867521
20621476 66 18187085096222845270
20621476 8 18410856542934739262
20735858 18 13551189987408674865
20767249 213 18408602565651697563
21130983 4 18187083961829233197
21150785 3 14476960086113687057
220451 1 17095515223823273162
22224240 67 15430036573707026417
22896161 15 8934999274522390454
23402539 116 18271801371731289974
23521765 1 18341894095129024871
23559900 14 12319152045937112911
246663 6 8358255960636681393
28498 318 18060142012462836614
33532 11 10881671408665349120
33684 2 16630527327681649638
59682541 35 12757156791953814188
59755656 520 18334005116818217759
8209 1 18411136939399839750

>  <PUBCHEM_SHAPE_MULTIPOLES>  (1) 
287.88
24.01
1.06
0.71
6.61
0.06
0.01
-11.56
0.22
-1.06
-0.02
0.02
0
-0.28

>  <PUBCHEM_SHAPE_SELFOVERLAP>  (1) 
540.996

>  <PUBCHEM_SHAPE_VOLUME>  (1) 
177.9

>  <PUBCHEM_COORDINATE_TYPE>  (1) 
2
5
10

$$$$
