5560
     RDKit          3D

 20 21  0  0  1  0  0  0  0  0999 V2000
   -4.8016   -1.9280    0.8883 Cl  0  0  0  0  0  0  0  0  0  0  0  0
   -4.2215   -0.9315   -1.7863 Cl  0  0  0  0  0  0  0  0  0  0  0  0
    2.7541   -2.8402   -0.0042 Cl  0  0  0  0  0  0  0  0  0  0  0  0
   -1.1984    2.0150    0.1052 S   0  0  0  0  0  0  0  0  0  0  0  0
    3.8657    0.1902   -0.1818 S   0  0  0  0  0  0  0  0  0  0  0  0
   -0.7982    2.8986   -0.9717 O   0  0  0  0  0  0  0  0  0  0  0  0
   -1.2731    2.4718    1.4786 O   0  0  0  0  0  0  0  0  0  0  0  0
    4.4837   -0.9826   -0.7934 O   0  0  0  0  0  0  0  0  0  0  0  0
    3.9271    1.4875   -0.8464 O   0  0  0  0  0  0  0  0  0  0  0  0
   -2.6699    1.2642   -0.3323 N   0  0  0  0  0  0  0  0  0  0  0  0
   -1.9689   -0.9845    0.2685 N   0  0  0  0  0  0  0  0  0  0  0  0
    4.5277    0.3628    1.3958 N   0  0  0  0  0  0  0  0  0  0  0  0
   -2.9904    0.0341    0.4265 C   0  0  0  0  0  0  0  0  0  0  0  0
   -0.1081    0.6268    0.1025 C   0  0  0  0  0  0  0  0  0  0  0  0
   -0.6180   -0.6778    0.1901 C   0  0  0  0  0  0  0  0  0  0  0  0
    1.2609    0.8863   -0.0119 C   0  0  0  0  0  0  0  0  0  0  0  0
    2.1582   -0.1762   -0.0418 C   0  0  0  0  0  0  0  0  0  0  0  0
   -4.3280   -0.5051   -0.0646 C   0  0  0  0  0  0  0  0  0  0  0  0
    0.3133   -1.7283    0.1442 C   0  0  0  0  0  0  0  0  0  0  0  0
    1.6856   -1.4832    0.0347 C   0  0  0  0  0  0  0  0  0  0  0  0
  1 18  1  0
  2 18  1  0
  3 20  1  0
  4  6  2  0
  4  7  2  0
  4 10  1  0
  4 14  1  0
  5  8  2  0
  5  9  2  0
  5 12  1  0
  5 17  1  0
 10 13  1  0
 11 13  1  0
 11 15  1  0
 13 18  1  0
 14 15  2  0
 14 16  1  0
 15 19  1  0
 16 17  2  0
 17 20  1  0
 19 20  2  0
M  END
>  <PUBCHEM_COMPOUND_CID>  (1) 
5560

>  <PUBCHEM_CONFORMER_RMSD>  (1) 
0.6

>  <PUBCHEM_CONFORMER_DIVERSEORDER>  (1) 
1
7
5
4
3
2
6

>  <PUBCHEM_MMFF94_PARTIAL_CHARGES>  (1) 
26
1 -0.29
10 -0.91
11 -0.87
12 -0.98
13 0.72
14 -0.01
15 0.1
16 -0.15
17 -0.01
18 0.58
19 -0.15
2 -0.29
20 0.18
22 0.42
23 0.4
24 0.15
26 0.15
27 0.42
28 0.42
3 -0.18
4 1.45
5 1.45
6 -0.65
7 -0.65
8 -0.65
9 -0.65

>  <PUBCHEM_EFFECTIVE_ROTOR_COUNT>  (1) 
2.6

>  <PUBCHEM_PHARMACOPHORE_FEATURES>  (1) 
10
1 10 donor
1 11 cation
1 11 donor
1 12 donor
1 6 acceptor
1 7 acceptor
1 8 acceptor
1 9 acceptor
6 14 15 16 17 19 20 rings
6 4 10 11 13 14 15 rings

>  <PUBCHEM_HEAVY_ATOM_COUNT>  (1) 
20

>  <PUBCHEM_ATOM_DEF_STEREO_COUNT>  (1) 
0

>  <PUBCHEM_ATOM_UDEF_STEREO_COUNT>  (1) 
1

>  <PUBCHEM_BOND_DEF_STEREO_COUNT>  (1) 
0

>  <PUBCHEM_BOND_UDEF_STEREO_COUNT>  (1) 
0

>  <PUBCHEM_ISOTOPIC_ATOM_COUNT>  (1) 
0

>  <PUBCHEM_COMPONENT_COUNT>  (1) 
1

>  <PUBCHEM_CACTVS_TAUTO_COUNT>  (1) 
1

>  <PUBCHEM_CONFORMER_ID>  (1) 
000015B800000001

>  <PUBCHEM_MMFF94_ENERGY>  (1) 
32.588

>  <PUBCHEM_FEATURE_SELFOVERLAP>  (1) 
50.825

>  <PUBCHEM_SHAPE_FINGERPRINT>  (1) 
10090160 65 18261388983599603670
10967382 1 18409452526467736850
11132069 177 18412823586253247288
12236239 1 17704077317737838379
12403259 226 18337388232703112636
12403260 363 18335135359200117076
12553582 1 18342451578043181319
13140716 1 18123747823204270066
13544653 18 18341894104162058145
13583140 156 14261064308206270351
13862211 1 18337667615566656499
14178342 30 18267017250773582904
14576447 43 18200860898824559175
14787075 74 18339080517909095707
15196674 1 18409733941103798345
15375462 189 18201719574281657235
15442244 35 18049726213683979698
15536298 74 18341614750957551746
16945 1 18410576201660609042
17349148 13 18113901550453695482
17357779 13 18337942459430055229
17492 89 18265616489618094811
18186145 218 18125728881375520076
200 152 18413387639955117903
20510252 161 18341895151696384817
21029758 11 18342452681955089601
21029758 27 18335145344893507341
21267235 1 18337966639626738218
21501502 16 18195251018410309698
221490 88 18266746787919192302
2334 1 17834678579799453586
23402539 116 18411696591055878175
23557571 272 18342187634811373111
23558518 356 18116723906291216546
23559900 14 18265891346445165506
2748010 2 18194124014886789054
2871803 45 18408884022931775846
312423 11 18267878198168666966
350125 39 18339647716155021418
474229 33 18409727404617351986
5104073 3 18340769226046275082
5283173 99 17896869977018663693
537710 114 18336835297969789005
58051976 378 18410011027088422718
6913067 236 18266999774203203160
9709674 26 18337397024089905778

>  <PUBCHEM_SHAPE_MULTIPOLES>  (1) 
386.48
9.14
2.74
1.1
0.26
0.5
0.12
-3.42
0.58
0.05
-0.1
0.58
0.12
0.07

>  <PUBCHEM_SHAPE_SELFOVERLAP>  (1) 
765.67

>  <PUBCHEM_SHAPE_VOLUME>  (1) 
231.2

>  <PUBCHEM_COORDINATE_TYPE>  (1) 
2
5
10

$$$$
