5563
     RDKit          3D

 10  9  0  0  0  0  0  0  0  0999 V2000
   -3.0896    1.3354   -0.1135 Cl  0  0  0  0  0  0  0  0  0  0  0  0
   -2.1814   -0.8787    1.5379 Cl  0  0  0  0  0  0  0  0  0  0  0  0
   -2.1797   -1.1253   -1.3661 Cl  0  0  0  0  0  0  0  0  0  0  0  0
    2.0417   -0.0635    0.0088 P   0  0  0  0  0  0  0  0  0  0  0  0
    0.4740   -0.4664    0.0422 O   0  0  0  0  0  0  0  0  0  0  0  0
    2.1775    1.0471    1.1764 O   0  0  0  0  0  0  0  0  0  0  0  0
    2.1621    0.8072   -1.3485 O   0  0  0  0  0  0  0  0  0  0  0  0
    2.9951   -1.2183    0.1077 O   0  0  0  0  0  0  0  0  0  0  0  0
   -0.4914    0.5672   -0.0464 C   0  0  0  0  0  0  0  0  0  0  0  0
   -1.9083   -0.0048    0.0015 C   0  0  0  0  0  0  0  0  0  0  0  0
  1 10  1  0
  2 10  1  0
  3 10  1  0
  4  5  1  0
  4  6  1  0
  4  7  1  0
  4  8  2  0
  5  9  1  0
  9 10  1  0
M  END
>  <PUBCHEM_COMPOUND_CID>  (1) 
5563

>  <PUBCHEM_CONFORMER_RMSD>  (1) 
0.6

>  <PUBCHEM_CONFORMER_DIVERSEORDER>  (1) 
1

>  <PUBCHEM_MMFF94_PARTIAL_CHARGES>  (1) 
12
1 -0.29
10 0.87
13 0.5
14 0.5
2 -0.29
3 -0.29
4 1.51
5 -0.55
6 -0.77
7 -0.77
8 -0.7
9 0.28

>  <PUBCHEM_EFFECTIVE_ROTOR_COUNT>  (1) 
3

>  <PUBCHEM_PHARMACOPHORE_FEATURES>  (1) 
4
1 6 acceptor
1 7 acceptor
1 8 acceptor
4 4 6 7 8 anion

>  <PUBCHEM_HEAVY_ATOM_COUNT>  (1) 
10

>  <PUBCHEM_ATOM_DEF_STEREO_COUNT>  (1) 
0

>  <PUBCHEM_ATOM_UDEF_STEREO_COUNT>  (1) 
0

>  <PUBCHEM_BOND_DEF_STEREO_COUNT>  (1) 
0

>  <PUBCHEM_BOND_UDEF_STEREO_COUNT>  (1) 
0

>  <PUBCHEM_ISOTOPIC_ATOM_COUNT>  (1) 
0

>  <PUBCHEM_COMPONENT_COUNT>  (1) 
1

>  <PUBCHEM_CACTVS_TAUTO_COUNT>  (1) 
1

>  <PUBCHEM_CONFORMER_ID>  (1) 
000015BB00000001

>  <PUBCHEM_MMFF94_ENERGY>  (1) 
-21.7394

>  <PUBCHEM_FEATURE_SELFOVERLAP>  (1) 
20.333

>  <PUBCHEM_SHAPE_FINGERPRINT>  (1) 
12932741 1 17203610410424352885
12932764 1 18130514118560461504
14390081 3 18343576335330350785
15310529 11 18262532479871036759
15775835 57 18273213097089458366
20653085 51 18059856130411843193
21524375 3 18050568439839061689
23235685 24 17676487194556200635
23235687 12 17346600798099563112
3248919 1 17967808383587208229
369184 2 18131627902696904059
8030462 33 18408885169650938790

>  <PUBCHEM_SHAPE_MULTIPOLES>  (1) 
191.78
5.13
1.35
1.34
1.51
0
-0.19
-0.23
0.05
-0.43
0.13
-0.44
0.21
0

>  <PUBCHEM_SHAPE_SELFOVERLAP>  (1) 
320.697

>  <PUBCHEM_SHAPE_VOLUME>  (1) 
131.5

>  <PUBCHEM_COORDINATE_TYPE>  (1) 
2
5
10

$$$$
