5573
     RDKit          3D

 28 29  0  0  1  0  0  0  0  0999 V2000
    0.6433   -0.9973   -0.2318 O   0  0  0  0  0  0  0  0  0  0  0  0
   -0.3780   -2.4084   -1.7368 O   0  0  0  0  0  0  0  0  0  0  0  0
   -5.2447   -1.5492   -0.2262 O   0  0  0  0  0  0  0  0  0  0  0  0
   -2.7757    2.4571    0.6621 O   0  0  0  0  0  0  0  0  0  0  0  0
   -5.1873    1.0970    0.5890 O   0  0  0  0  0  0  0  0  0  0  0  0
    4.2850   -1.6162   -0.0134 N   0  0  0  0  0  0  0  0  0  0  0  0
    3.0318   -0.9043    0.3093 C   0  0  0  0  0  0  0  0  0  0  0  0
    2.7297   -1.1451    1.8181 C   0  0  0  0  0  0  0  0  0  0  0  0
    1.9109   -1.5763   -0.5282 C   0  0  0  0  0  0  0  0  0  0  0  0
    3.1015    0.6024    0.0057 C   0  0  0  0  0  0  0  0  0  0  0  0
    2.6378   -2.6120    2.2347 C   0  0  0  0  0  0  0  0  0  0  0  0
    4.5572   -1.5198   -1.4420 C   0  0  0  0  0  0  0  0  0  0  0  0
    5.3851   -1.0638    0.7669 C   0  0  0  0  0  0  0  0  0  0  0  0
    2.7393    1.0775   -1.2547 C   0  0  0  0  0  0  0  0  0  0  0  0
    3.5263    1.4936    0.9911 C   0  0  0  0  0  0  0  0  0  0  0  0
    2.8020    2.4435   -1.5299 C   0  0  0  0  0  0  0  0  0  0  0  0
    3.5890    2.8597    0.7162 C   0  0  0  0  0  0  0  0  0  0  0  0
    3.2269    3.3345   -0.5443 C   0  0  0  0  0  0  0  0  0  0  0  0
   -0.4184   -1.5102   -0.9103 C   0  0  0  0  0  0  0  0  0  0  0  0
   -1.6739   -0.8239   -0.5139 C   0  0  0  0  0  0  0  0  0  0  0  0
   -1.6411    0.5093   -0.1049 C   0  0  0  0  0  0  0  0  0  0  0  0
   -2.8867   -1.5117   -0.5530 C   0  0  0  0  0  0  0  0  0  0  0  0
   -4.0668   -0.8663   -0.1832 C   0  0  0  0  0  0  0  0  0  0  0  0
   -2.8211    1.1547    0.2650 C   0  0  0  0  0  0  0  0  0  0  0  0
   -4.0339    0.4669    0.2257 C   0  0  0  0  0  0  0  0  0  0  0  0
   -5.6328   -2.2472    0.9555 C   0  0  0  0  0  0  0  0  0  0  0  0
   -1.4961    3.0868    0.6737 C   0  0  0  0  0  0  0  0  0  0  0  0
   -5.9092    1.7689   -0.4404 C   0  0  0  0  0  0  0  0  0  0  0  0
  1  9  1  0
  1 19  1  0
  2 19  2  0
  3 23  1  0
  3 26  1  0
  4 24  1  0
  4 27  1  0
  5 25  1  0
  5 28  1  0
  6  7  1  0
  6 12  1  0
  6 13  1  0
  7  8  1  0
  7  9  1  0
  7 10  1  0
  8 11  1  0
 10 14  2  0
 10 15  1  0
 14 16  1  0
 15 17  2  0
 16 18  2  0
 17 18  1  0
 19 20  1  0
 20 21  2  0
 20 22  1  0
 21 24  1  0
 22 23  2  0
 23 25  1  0
 24 25  2  0
M  END
>  <PUBCHEM_COMPOUND_CID>  (1) 
5573

>  <PUBCHEM_CONFORMER_RMSD>  (1) 
1

>  <PUBCHEM_CONFORMER_DIVERSEORDER>  (1) 
1
11
63
43
14
7
28
23
24
26
8
36
15
46
30
52
68
17
53
47
56
67
58
44
51
25
73
29
19
5
71
39
3
40
12
70
69
61
54
38
75
31
20
59
65
16
66
13
21
41
74
64
18
45
2
27
78
35
22
37
62
33
9
34
50
10
49
60
55
57
77
4
48
72
42
32
76
6

>  <PUBCHEM_MMFF94_PARTIAL_CHARGES>  (1) 
33
1 -0.43
10 -0.14
12 0.27
13 0.27
14 -0.15
15 -0.15
16 -0.15
17 -0.15
18 -0.15
19 0.63
2 -0.57
20 0.09
21 -0.15
22 -0.15
23 0.08
24 0.08
25 0.08
26 0.28
27 0.28
28 0.28
3 -0.36
4 -0.36
42 0.15
43 0.15
44 0.15
45 0.15
46 0.15
47 0.15
48 0.15
5 -0.36
6 -0.81
7 0.41
9 0.28

>  <PUBCHEM_EFFECTIVE_ROTOR_COUNT>  (1) 
10

>  <PUBCHEM_PHARMACOPHORE_FEATURES>  (1) 
8
1 11 hydrophobe
1 2 acceptor
1 3 acceptor
1 4 acceptor
1 5 acceptor
1 6 cation
6 10 14 15 16 17 18 rings
6 20 21 22 23 24 25 rings

>  <PUBCHEM_HEAVY_ATOM_COUNT>  (1) 
28

>  <PUBCHEM_ATOM_DEF_STEREO_COUNT>  (1) 
0

>  <PUBCHEM_ATOM_UDEF_STEREO_COUNT>  (1) 
1

>  <PUBCHEM_BOND_DEF_STEREO_COUNT>  (1) 
0

>  <PUBCHEM_BOND_UDEF_STEREO_COUNT>  (1) 
0

>  <PUBCHEM_ISOTOPIC_ATOM_COUNT>  (1) 
0

>  <PUBCHEM_COMPONENT_COUNT>  (1) 
1

>  <PUBCHEM_CACTVS_TAUTO_COUNT>  (1) 
1

>  <PUBCHEM_CONFORMER_ID>  (1) 
000015C500000001

>  <PUBCHEM_MMFF94_ENERGY>  (1) 
128.5685

>  <PUBCHEM_FEATURE_SELFOVERLAP>  (1) 
40.606

>  <PUBCHEM_SHAPE_FINGERPRINT>  (1) 
10366900 7 17458351822947271378
10498660 4 18272657886883862965
10763959 59 18269275660225308653
12107698 1 18409166610616311154
12403259 118 18412819175459036131
12422481 6 18113624461235297805
12596602 18 18187364324494122314
12788726 201 17632589257263658609
13224815 77 18342741827453058593
13583140 156 17895739713119183879
14117953 113 18269557126892075557
14341114 176 18338239254112057242
14787075 74 17900540387229256067
14849402 71 18188491397692070332
14955137 171 18339925909961594086
15196674 1 18413389860638027589
1601671 61 18269275656494759062
17492 89 18411139121317696279
17844677 252 18410298029640654811
18681886 176 18272086085229483450
19319366 153 18118111709130666850
20715895 44 18121775037768409197
21033648 29 17345171325926186314
21315764 371 16950841530731563899
21503847 285 18409167706017457738
21792934 111 18341891897071179297
21864079 5 18343298192963139574
22149856 69 17775013405963664395
23559900 14 18199473173300314415
3004659 81 18409445865015834337
312423 11 18411147943111489280
350125 39 18412547595971061116
3680242 22 18341060652984702753
38570 142 17898589806720873924
392239 28 18261964036976815083
474 4 17969219108983212852
5104073 3 18410299125020469465
5895379 119 17845950515531337408
67856867 119 18409164428503879637
7097593 13 17972871458656093763
7288768 16 17680423657027660368
9981440 41 17689992762854370568

>  <PUBCHEM_SHAPE_MULTIPOLES>  (1) 
541.9
12.74
3.75
1.47
11.76
2.07
-0.16
-0.75
-1.37
-1.46
-0.39
-1.41
-0.63
-0.84

>  <PUBCHEM_SHAPE_SELFOVERLAP>  (1) 
1135.1

>  <PUBCHEM_SHAPE_VOLUME>  (1) 
307.3

>  <PUBCHEM_COORDINATE_TYPE>  (1) 
2
5
10

$$$$
