5579
     RDKit          3D

 11 11  0  0  0  0  0  0  0  0999 V2000
   -1.8039   -0.1993    0.0000 N   0  0  0  0  0  0  0  0  0  0  0  0
    2.8847   -1.5906    0.0004 N   0  0  0  0  0  0  0  0  0  0  0  0
   -0.3140    0.1515   -0.0004 C   0  0  0  0  0  0  0  0  0  0  0  0
   -2.4476    0.3924   -1.2508 C   0  0  0  0  0  0  0  0  0  0  0  0
   -2.4428    0.3732    1.2622 C   0  0  0  0  0  0  0  0  0  0  0  0
   -2.0420   -1.7078   -0.0105 C   0  0  0  0  0  0  0  0  0  0  0  0
    0.5599   -0.8836   -0.0009 C   0  0  0  0  0  0  0  0  0  0  0  0
    0.0056    1.4679    0.0002 C   0  0  0  0  0  0  0  0  0  0  0  0
    1.9176   -0.5636   -0.0007 C   0  0  0  0  0  0  0  0  0  0  0  0
    1.3632    1.7878    0.0005 C   0  0  0  0  0  0  0  0  0  0  0  0
    2.3192    0.7722    0.0001 C   0  0  0  0  0  0  0  0  0  0  0  0
  1  3  1  0
  1  4  1  0
  1  5  1  0
  1  6  1  0
  2  9  1  0
  3  7  2  0
  3  8  1  0
  7  9  1  0
  8 10  2  0
  9 11  2  0
 10 11  1  0
M  CHG  1   1   1
M  END
>  <PUBCHEM_COMPOUND_CID>  (1) 
5579

>  <PUBCHEM_CONFORMER_RMSD>  (1) 
0.4

>  <PUBCHEM_CONFORMER_DIVERSEORDER>  (1) 
1
2

>  <PUBCHEM_MMFF94_PARTIAL_CHARGES>  (1) 
17
1 -0.87
10 -0.15
11 -0.15
2 -0.9
21 0.15
22 0.15
23 0.15
24 0.15
25 0.4
26 0.4
3 0.36
4 0.5
5 0.5
6 0.5
7 -0.15
8 -0.15
9 0.1

>  <PUBCHEM_EFFECTIVE_ROTOR_COUNT>  (1) 
1

>  <PUBCHEM_PHARMACOPHORE_FEATURES>  (1) 
4
1 1 cation
1 2 cation
1 2 donor
6 3 7 8 9 10 11 rings

>  <PUBCHEM_HEAVY_ATOM_COUNT>  (1) 
11

>  <PUBCHEM_ATOM_DEF_STEREO_COUNT>  (1) 
0

>  <PUBCHEM_ATOM_UDEF_STEREO_COUNT>  (1) 
0

>  <PUBCHEM_BOND_DEF_STEREO_COUNT>  (1) 
0

>  <PUBCHEM_BOND_UDEF_STEREO_COUNT>  (1) 
0

>  <PUBCHEM_ISOTOPIC_ATOM_COUNT>  (1) 
0

>  <PUBCHEM_COMPONENT_COUNT>  (1) 
1

>  <PUBCHEM_CACTVS_TAUTO_COUNT>  (1) 
1

>  <PUBCHEM_CONFORMER_ID>  (1) 
000015CB00000001

>  <PUBCHEM_MMFF94_ENERGY>  (1) 
58.6896

>  <PUBCHEM_FEATURE_SELFOVERLAP>  (1) 
20.297

>  <PUBCHEM_SHAPE_FINGERPRINT>  (1) 
12524768 44 18341616979649842222
12897270 3 18192706967478344485
12932764 1 17894911832117933907
14128692 85 18411987957495174294
16945 1 18410855451775779424
17844478 74 17677064507065058033
17990270 104 18336542823782091962
19973954 147 18335699485441905613
20201158 50 18335974311782790278
20653091 64 18339927124893617328
207724 885 18340213989948815363
21040471 1 17906172111466591276
23552423 10 18335706103938776070
2748010 2 18409728508133842254
29004967 10 18334016111659610880
3248919 1 17918275350406840582
369184 2 18410011048362526115
5084963 1 18118963834947313537
63268167 104 18411417340682381216
8030462 33 17988924526016108989

>  <PUBCHEM_SHAPE_MULTIPOLES>  (1) 
216.41
4.05
1.76
0.9
0.05
0.12
0.01
0.83
0
-0.61
0
0.73
-0.15
0

>  <PUBCHEM_SHAPE_SELFOVERLAP>  (1) 
440.079

>  <PUBCHEM_SHAPE_VOLUME>  (1) 
128.2

>  <PUBCHEM_COORDINATE_TYPE>  (1) 
2
5
10

$$$$
