5591
     RDKit          2D

 31 34  0  0  1  0  0  0  0  0999 V2000
    0.0000    0.0000    0.0000 S   0  0  0  0  0  0  0  0  0  0  0  0
    0.0000    0.0000    0.0000 O   0  0  0  0  0  0  0  0  0  0  0  0
    0.0000    0.0000    0.0000 O   0  0  0  0  0  0  0  0  0  0  0  0
    0.0000    0.0000    0.0000 O   0  0  0  0  0  0  0  0  0  0  0  0
    0.0000    0.0000    0.0000 O   0  0  0  0  0  0  0  0  0  0  0  0
    0.0000    0.0000    0.0000 O   0  0  0  0  0  0  0  0  0  0  0  0
    0.0000    0.0000    0.0000 N   0  0  0  0  0  0  0  0  0  0  0  0
    0.0000    0.0000    0.0000 C   0  0  0  0  0  0  0  0  0  0  0  0
    0.0000    0.0000    0.0000 C   0  0  0  0  0  0  0  0  0  0  0  0
    0.0000    0.0000    0.0000 C   0  0  0  0  0  0  0  0  0  0  0  0
    0.0000    0.0000    0.0000 C   0  0  0  0  0  0  0  0  0  0  0  0
    0.0000    0.0000    0.0000 C   0  0  0  0  0  0  0  0  0  0  0  0
    0.0000    0.0000    0.0000 C   0  0  0  0  0  0  0  0  0  0  0  0
    0.0000    0.0000    0.0000 C   0  0  0  0  0  0  0  0  0  0  0  0
    0.0000    0.0000    0.0000 C   0  0  0  0  0  0  0  0  0  0  0  0
    0.0000    0.0000    0.0000 C   0  0  0  0  0  0  0  0  0  0  0  0
    0.0000    0.0000    0.0000 C   0  0  0  0  0  0  0  0  0  0  0  0
    0.0000    0.0000    0.0000 C   0  0  0  0  0  0  0  0  0  0  0  0
    0.0000    0.0000    0.0000 C   0  0  0  0  0  0  0  0  0  0  0  0
    0.0000    0.0000    0.0000 C   0  0  0  0  0  0  0  0  0  0  0  0
    0.0000    0.0000    0.0000 C   0  0  0  0  0  0  0  0  0  0  0  0
    0.0000    0.0000    0.0000 C   0  0  0  0  0  0  0  0  0  0  0  0
    0.0000    0.0000    0.0000 C   0  0  0  0  0  0  0  0  0  0  0  0
    0.0000    0.0000    0.0000 C   0  0  0  0  0  0  0  0  0  0  0  0
    0.0000    0.0000    0.0000 C   0  0  0  0  0  0  0  0  0  0  0  0
    0.0000    0.0000    0.0000 C   0  0  0  0  0  0  0  0  0  0  0  0
    0.0000    0.0000    0.0000 C   0  0  0  0  0  0  0  0  0  0  0  0
    0.0000    0.0000    0.0000 C   0  0  0  0  0  0  0  0  0  0  0  0
    0.0000    0.0000    0.0000 C   0  0  0  0  0  0  0  0  0  0  0  0
    0.0000    0.0000    0.0000 C   0  0  0  0  0  0  0  0  0  0  0  0
    0.0000    0.0000    0.0000 C   0  0  0  0  0  0  0  0  0  0  0  0
  1 27  1  0
  1 31  1  0
  2  8  1  0
  2 12  1  0
  3 13  1  0
  3 22  1  0
  4 18  1  0
  5 30  2  0
  6 31  2  0
  7 30  1  0
  7 31  1  0
  8  9  1  0
  8 13  1  0
  8 14  1  0
  9 10  1  0
 10 11  1  0
 11 12  2  0
 11 15  1  0
 12 16  1  0
 15 18  2  0
 15 19  1  0
 16 17  2  0
 16 20  1  0
 17 18  1  0
 17 21  1  0
 22 24  2  0
 22 25  1  0
 23 26  1  0
 23 28  2  0
 23 29  1  0
 24 28  1  0
 25 29  2  0
 26 27  1  0
 27 30  1  0
M  END
>  <PUBCHEM_COMPOUND_CID>  (1) 
5591

>  <PUBCHEM_CONFORMER_RMSD>  (1) 
1

>  <PUBCHEM_CONFORMER_DIVERSEORDER>  (1) 
42
31
473
130
424
14
358
315
15
335
298
618
72
349
581
8
392
113
554
625
468
109
636
220
329
507
274
7
631
225
609
278
254
476
548
637
3
302
645
185
348
146
34
237
197
599
480
373
151
216
389
99
53
620
614
137
534
2
399
276
154
190
4
427
381
411
283
24
605
126
301
122
461
125
409
341
240
23
139
592
619
390
357
374
429
153
306
228
368
538
337
41
629
307
384
218
202
518
106
129
436
549
234
160
419
370
323
148
242
67
571
17
502
20
123
263
557
100
556
98
432
522
107
233
580
501
537
300
19
210
421
241
608
124
35
201
334
342
176
93
66
155
170
383
364
95
40
191
168
266
200
632
70
574
362
630
555
528
47
111
163
488
141
5
641
380
295
481
188
37
84
211
550
303
172
572
378
523
158
45
333
529
36
567
463
447
598
64
115
46
56
77
250
296
407
347
320
582
104
443
6
135
573
183
157
54
236
499
65
94
57
339
516
249
299
327
52
512
375
169
116
48
500
544
195
286
83
62
50
288
219
132
102
9
178
182
43
12
379
244
51
159
13
318
575
101
11
203
285
505
422
245
131
338
121
578
255
38
346
633
451
10
44
587
134
252
408
105
247
243
491
164
366
459
221
1
120
267
108
63
213
404
439
103
32
192
545
156
401
205
209
365
149
181
39
55

>  <PUBCHEM_MMFF94_PARTIAL_CHARGES>  (1) 
35
1 -0.37
10 0.14
11 -0.14
12 0.08
13 0.28
15 -0.14
16 -0.14
17 -0.14
18 0.08
19 0.14
2 -0.36
20 0.14
21 0.14
22 0.08
23 -0.14
24 -0.15
25 -0.15
26 0.14
27 0.29
28 -0.15
29 -0.15
3 -0.36
30 0.57
31 0.77
4 -0.53
5 -0.57
50 0.45
53 0.15
54 0.15
56 0.15
57 0.15
58 0.37
6 -0.57
7 -0.49
8 0.28

>  <PUBCHEM_EFFECTIVE_ROTOR_COUNT>  (1) 
6.4

>  <PUBCHEM_PHARMACOPHORE_FEATURES>  (1) 
9
1 2 acceptor
1 3 acceptor
1 4 donor
1 5 acceptor
1 7 donor
5 1 7 27 30 31 rings
6 11 12 15 16 17 18 rings
6 2 8 9 10 11 12 rings
6 22 23 24 25 28 29 rings

>  <PUBCHEM_HEAVY_ATOM_COUNT>  (1) 
31

>  <PUBCHEM_ATOM_DEF_STEREO_COUNT>  (1) 
0

>  <PUBCHEM_ATOM_UDEF_STEREO_COUNT>  (1) 
2

>  <PUBCHEM_BOND_DEF_STEREO_COUNT>  (1) 
0

>  <PUBCHEM_BOND_UDEF_STEREO_COUNT>  (1) 
0

>  <PUBCHEM_ISOTOPIC_ATOM_COUNT>  (1) 
0

>  <PUBCHEM_COMPONENT_COUNT>  (1) 
1

>  <PUBCHEM_CACTVS_TAUTO_COUNT>  (1) 
27

$$$$
