5595
     RDKit          3D

 21 24  0  0  1  0  0  0  0  0999 V2000
   -0.5159    0.7078    0.3483 O   0  0  0  0  0  0  0  0  0  0  0  0
    0.3472   -1.4258    0.3980 O   0  0  0  0  0  0  0  0  0  0  0  0
   -4.3171    0.2956   -0.9645 N   0  0  0  0  0  0  0  0  0  0  0  0
    3.2692    2.0226   -0.1524 N   0  0  0  0  0  0  0  0  0  0  0  0
   -3.6992   -1.0227   -0.7267 C   0  0  0  0  0  0  0  0  0  0  0  0
   -4.2808    0.9174    0.3728 C   0  0  0  0  0  0  0  0  0  0  0  0
   -4.3046   -1.4961    0.5994 C   0  0  0  0  0  0  0  0  0  0  0  0
   -4.6910   -0.2076    1.3297 C   0  0  0  0  0  0  0  0  0  0  0  0
   -2.1823   -0.7748   -0.6100 C   0  0  0  0  0  0  0  0  0  0  0  0
   -2.8237    1.3648    0.6026 C   0  0  0  0  0  0  0  0  0  0  0  0
   -1.8311    0.1962    0.5271 C   0  0  0  0  0  0  0  0  0  0  0  0
   -5.6703    0.1968   -1.5058 C   0  0  0  0  0  0  0  0  0  0  0  0
    0.4829   -0.2160    0.3013 C   0  0  0  0  0  0  0  0  0  0  0  0
    1.8001    0.4432    0.1137 C   0  0  0  0  0  0  0  0  0  0  0  0
    3.0380   -0.1894    0.0230 C   0  0  0  0  0  0  0  0  0  0  0  0
    1.9313    1.7815    0.0086 C   0  0  0  0  0  0  0  0  0  0  0  0
    3.9693    0.8372   -0.1473 C   0  0  0  0  0  0  0  0  0  0  0  0
    3.4965   -1.5212    0.0639 C   0  0  0  0  0  0  0  0  0  0  0  0
    5.3418    0.5976   -0.2793 C   0  0  0  0  0  0  0  0  0  0  0  0
    4.8666   -1.7759   -0.0667 C   0  0  0  0  0  0  0  0  0  0  0  0
    5.7732   -0.7312   -0.2356 C   0  0  0  0  0  0  0  0  0  0  0  0
  1 11  1  0
  1 13  1  0
  2 13  2  0
  3  5  1  0
  3  6  1  0
  3 12  1  0
  4 16  1  0
  4 17  1  0
  5  7  1  0
  5  9  1  0
  6  8  1  0
  6 10  1  0
  7  8  1  0
  9 11  1  0
 10 11  1  0
 13 14  1  0
 14 15  1  0
 14 16  2  0
 15 17  2  0
 15 18  1  0
 17 19  1  0
 18 20  2  0
 19 21  2  0
 20 21  1  0
M  END
>  <PUBCHEM_COMPOUND_CID>  (1) 
5595

>  <PUBCHEM_CONFORMER_RMSD>  (1) 
0.6

>  <PUBCHEM_CONFORMER_DIVERSEORDER>  (1) 
1
21
12
23
53
38
44
43
20
29
52
17
32
2
40
25
45
47
19
10
39
42
14
16
6
7
49
36
18
41
35
24
3
15
5
34
4
31
22
51
13
9
30
50
26
33
48
37
46
8
11
28
27

>  <PUBCHEM_MMFF94_PARTIAL_CHARGES>  (1) 
22
1 -0.43
11 0.28
12 0.27
13 0.81
14 -0.09
16 -0.3
17 -0.15
18 -0.15
19 -0.15
2 -0.57
20 -0.15
21 -0.15
3 -0.81
36 0.15
37 0.27
38 0.15
39 0.15
4 0.03
40 0.15
41 0.15
5 0.27
6 0.27

>  <PUBCHEM_EFFECTIVE_ROTOR_COUNT>  (1) 
4.2

>  <PUBCHEM_PHARMACOPHORE_FEATURES>  (1) 
7
1 2 acceptor
1 3 cation
1 4 cation
1 4 donor
5 4 14 15 16 17 rings
6 15 17 18 19 20 21 rings
8 3 5 6 7 8 9 10 11 rings

>  <PUBCHEM_HEAVY_ATOM_COUNT>  (1) 
21

>  <PUBCHEM_ATOM_DEF_STEREO_COUNT>  (1) 
0

>  <PUBCHEM_ATOM_UDEF_STEREO_COUNT>  (1) 
2

>  <PUBCHEM_BOND_DEF_STEREO_COUNT>  (1) 
0

>  <PUBCHEM_BOND_UDEF_STEREO_COUNT>  (1) 
0

>  <PUBCHEM_ISOTOPIC_ATOM_COUNT>  (1) 
0

>  <PUBCHEM_COMPONENT_COUNT>  (1) 
1

>  <PUBCHEM_CACTVS_TAUTO_COUNT>  (1) 
2

>  <PUBCHEM_CONFORMER_ID>  (1) 
000015DB00000001

>  <PUBCHEM_MMFF94_ENERGY>  (1) 
47.0267

>  <PUBCHEM_FEATURE_SELFOVERLAP>  (1) 
35.615

>  <PUBCHEM_SHAPE_FINGERPRINT>  (1) 
10595046 47 18343021133397633100
10680689 15 17313106362993560729
10912923 1 17418096537411435897
11315181 36 16774075181133020665
12107183 9 17693384334733247506
12236239 1 18060420209350696080
12403259 415 17748827440539792185
12596602 18 8142085394678660789
12616971 3 18130796671969739017
12670546 56 17989200456137312600
13167823 11 18341896294342353426
13760787 5 18343866632275161585
13862211 1 18411979127232603586
14341114 176 18409175410676986443
14573314 32 17675923170845157262
15183329 4 18410856542955864214
15188451 53 15123493840459647061
15196674 1 18411139147076359512
15475509 35 14835851600482350454
15788980 27 18410855464576168367
17349148 13 17632582642986829650
17834072 33 18413110571894453672
17844677 252 18334021600596374501
17857418 61 18201996620877982470
18186145 218 17967246511813003233
18681886 176 17989200474045006642
18927931 339 18272942617672078807
19489759 90 15267345106873748675
200 152 18202565081184754392
20612939 158 18408042927023395460
20645477 70 18409735041248812154
21033648 29 17604139406689847309
21033650 10 16414106056251400720
21267235 1 18340779190375558746
21641784 216 17823436928611014780
21709351 56 18113898286262583749
221357 26 18335693923364584909
221490 88 18264495151102852242
22393880 68 18040425612291332979
22646028 1 18060419114181456401
23402539 116 17703790301731056937
23402655 69 18411419514183694292
23559900 14 18410568526269435593
29717793 49 18059857246813157516
3004659 81 18334014965684057966
34797466 226 14851904533870723306
3545911 37 18040996241957203861
4073 2 18041005080609918730
4214541 1 18412266112225015673
5104073 3 18343023306466261651
5281201 14 17968098641946366316
542803 24 16917072165619690584
559249 180 18200309910117173175
602551 16 15554157159958890972
633830 44 17530960323623280711
67856867 119 18201714115557988120
77779 3 18410577300940173705
90127 26 17312823805363734285
9709674 26 18262524826118353506
9971528 1 18408881854601357036
9981440 41 17404008718522212920

>  <PUBCHEM_SHAPE_MULTIPOLES>  (1) 
410.47
14.3
1.71
0.96
1.37
0.06
-0.1
-1.96
-2.02
1.16
0.08
-1.5
-0.03
-0.11

>  <PUBCHEM_SHAPE_SELFOVERLAP>  (1) 
906.918

>  <PUBCHEM_SHAPE_VOLUME>  (1) 
222.4

>  <PUBCHEM_COORDINATE_TYPE>  (1) 
2
5
10

$$$$
