5617
     RDKit          3D

 25 29  0  0  0  0  0  0  0  0999 V2000
    4.3772    2.6201   -0.0516 O   0  0  0  0  0  0  0  0  0  0  0  0
   -0.4996    1.0477    0.4201 N   0  0  0  0  0  0  0  0  0  0  0  0
    1.0445   -0.5496   -0.3218 N   0  0  0  0  0  0  0  0  0  0  0  0
    1.8000    1.5338    0.1007 N   0  0  0  0  0  0  0  0  0  0  0  0
   -2.6074    0.2090    1.3885 C   0  0  0  0  0  0  0  0  0  0  0  0
   -2.1376   -0.0329   -1.0792 C   0  0  0  0  0  0  0  0  0  0  0  0
   -4.3217   -0.8668   -0.1229 C   0  0  0  0  0  0  0  0  0  0  0  0
   -3.8834    1.6100   -0.2822 C   0  0  0  0  0  0  0  0  0  0  0  0
   -1.5109   -0.0123    0.3286 C   0  0  0  0  0  0  0  0  0  0  0  0
   -3.6930   -0.8805    1.2807 C   0  0  0  0  0  0  0  0  0  0  0  0
   -3.2596    1.5811    1.1262 C   0  0  0  0  0  0  0  0  0  0  0  0
   -3.2259   -1.1210   -1.1717 C   0  0  0  0  0  0  0  0  0  0  0  0
   -2.7911    1.3398   -1.3346 C   0  0  0  0  0  0  0  0  0  0  0  0
   -4.9559    0.5113   -0.3788 C   0  0  0  0  0  0  0  0  0  0  0  0
    0.7133    0.7294    0.0941 C   0  0  0  0  0  0  0  0  0  0  0  0
    2.3375   -1.1755   -0.1191 C   0  0  0  0  0  0  0  0  0  0  0  0
    2.3675   -1.8943    1.2335 C   0  0  0  0  0  0  0  0  0  0  0  0
    2.6440   -2.1353   -1.2730 C   0  0  0  0  0  0  0  0  0  0  0  0
    2.5420    1.8306    1.3235 C   0  0  0  0  0  0  0  0  0  0  0  0
    2.1955    2.3181   -1.0667 C   0  0  0  0  0  0  0  0  0  0  0  0
    1.4996   -3.1527    1.2542 C   0  0  0  0  0  0  0  0  0  0  0  0
    1.7750   -3.3928   -1.2433 C   0  0  0  0  0  0  0  0  0  0  0  0
    1.8483   -4.0967    0.1080 C   0  0  0  0  0  0  0  0  0  0  0  0
    4.0366    1.7568    1.0362 C   0  0  0  0  0  0  0  0  0  0  0  0
    3.7051    2.2226   -1.2495 C   0  0  0  0  0  0  0  0  0  0  0  0
  1 24  1  0
  1 25  1  0
  2  9  1  0
  2 15  2  0
  3 15  1  0
  3 16  1  0
  4 15  1  0
  4 19  1  0
  4 20  1  0
  5  9  1  0
  5 10  1  0
  5 11  1  0
  6  9  1  0
  6 12  1  0
  6 13  1  0
  7 10  1  0
  7 12  1  0
  7 14  1  0
  8 11  1  0
  8 13  1  0
  8 14  1  0
 16 17  1  0
 16 18  1  0
 17 21  1  0
 18 22  1  0
 19 24  1  0
 20 25  1  0
 21 23  1  0
 22 23  1  0
M  END
>  <PUBCHEM_COMPOUND_CID>  (1) 
5617

>  <PUBCHEM_CONFORMER_RMSD>  (1) 
0.8

>  <PUBCHEM_CONFORMER_DIVERSEORDER>  (1) 
2
14
5
16
13
8
18
9
6
7
10
11
15
20
19
12
1
3
4
17

>  <PUBCHEM_MMFF94_PARTIAL_CHARGES>  (1) 
12
1 -0.56
15 0.55
16 0.37
19 0.37
2 -0.7
20 0.37
24 0.28
25 0.28
3 -0.82
4 -0.79
41 0.4
9 0.25

>  <PUBCHEM_EFFECTIVE_ROTOR_COUNT>  (1) 
7.6

>  <PUBCHEM_PHARMACOPHORE_FEATURES>  (1) 
9
1 1 acceptor
1 3 donor
4 2 3 4 15 cation
6 1 4 19 20 24 25 rings
6 16 17 18 21 22 23 rings
6 5 6 7 9 10 12 rings
6 5 6 8 9 11 13 rings
6 5 7 8 10 11 14 rings
6 6 7 8 12 13 14 rings

>  <PUBCHEM_HEAVY_ATOM_COUNT>  (1) 
25

>  <PUBCHEM_ATOM_DEF_STEREO_COUNT>  (1) 
0

>  <PUBCHEM_ATOM_UDEF_STEREO_COUNT>  (1) 
0

>  <PUBCHEM_BOND_DEF_STEREO_COUNT>  (1) 
0

>  <PUBCHEM_BOND_UDEF_STEREO_COUNT>  (1) 
0

>  <PUBCHEM_ISOTOPIC_ATOM_COUNT>  (1) 
0

>  <PUBCHEM_COMPONENT_COUNT>  (1) 
1

>  <PUBCHEM_CACTVS_TAUTO_COUNT>  (1) 
2

>  <PUBCHEM_CONFORMER_ID>  (1) 
000015F100000002

>  <PUBCHEM_MMFF94_ENERGY>  (1) 
70.3471

>  <PUBCHEM_FEATURE_SELFOVERLAP>  (1) 
58.206

>  <PUBCHEM_SHAPE_FINGERPRINT>  (1) 
11578080 2 17824255999784468444
121448 382 17984695881620781652
12160290 23 17618782900454368242
12422481 6 18122309477823066786
12553582 1 17907304251597216970
12707595 3 18119816811062808587
12788726 201 16964638945598108858
13224815 77 18272933838442765321
133893 2 18265070062745849944
13533116 47 18343021056763123793
13583140 156 18202557415312066377
13681431 1 18267023843453195970
14844126 61 16749295182393374410
15502722 9 18410578383398506884
17138139 8 17410463886737646087
17492 89 18342455903328780887
17818456 19 17556864616069547377
1813 80 17982172214783464534
20197701 30 18340481287813585752
20567600 347 18338797935158253614
20600515 1 17479727226792109810
20645477 70 18412258411533166479
21033648 29 13769024204617528821
21120745 212 17407977492216534918
21421861 104 18268434542404241928
21524375 3 18193274315773773264
22393880 68 18343025492615170916
2255824 54 18409169887649945038
22907989 373 17398966358265011212
23366157 5 18262522489724430134
23559900 14 18334852766877762353
314173 41 18122067494237789951
38695281 34 18272088318754824606
4280585 95 18121781621773899678
469060 322 17905613551191487731
474 4 18334856155723126784
5104073 3 18410860924270932169
633830 44 17774450511037813176
6669772 16 18340774836323329910
7097593 13 18127131870744101275
7364860 26 18343301431716640082
81228 2 17331676843592741810
9709674 26 18335139761404724939

>  <PUBCHEM_SHAPE_MULTIPOLES>  (1) 
493.68
8.95
4.05
1.5
5.33
3.02
0.05
-3.34
-0.17
-6.03
-0.28
-0.12
0.11
0.05

>  <PUBCHEM_SHAPE_SELFOVERLAP>  (1) 
1048.864

>  <PUBCHEM_SHAPE_VOLUME>  (1) 
267.3

>  <PUBCHEM_COORDINATE_TYPE>  (1) 
2
5
10

$$$$
