5625
     RDKit          3D

 32 35  0  0  0  0  0  0  0  0999 V2000
    7.1750    1.9008   -0.0900 S   0  0  0  0  0  0  0  0  0  0  0  0
    0.2834   -3.9136    1.3464 O   0  0  0  0  0  0  0  0  0  0  0  0
    8.5560    2.1278   -0.4736 O   0  0  0  0  0  0  0  0  0  0  0  0
    6.1744    2.9291   -0.2962 O   0  0  0  0  0  0  0  0  0  0  0  0
   -3.2724   -0.7685   -0.1748 N   0  0  0  0  0  0  0  0  0  0  0  0
   -1.0420   -2.0530    0.9799 N   0  0  0  0  0  0  0  0  0  0  0  0
    1.3109   -1.0159   -0.4140 N   0  0  0  0  0  0  0  0  0  0  0  0
   -4.4279    1.5798    0.8854 N   0  0  0  0  0  0  0  0  0  0  0  0
   -4.8371   -0.7204   -1.9875 N   0  0  0  0  0  0  0  0  0  0  0  0
    6.6639    0.4004   -0.7624 N   0  0  0  0  0  0  0  0  0  0  0  0
   -3.1324   -2.2291   -0.2976 C   0  0  0  0  0  0  0  0  0  0  0  0
   -2.0267   -0.0129    0.0206 C   0  0  0  0  0  0  0  0  0  0  0  0
   -2.2991   -2.7866    0.8553 C   0  0  0  0  0  0  0  0  0  0  0  0
   -1.2204   -0.6108    1.1717 C   0  0  0  0  0  0  0  0  0  0  0  0
   -4.3510   -0.1624   -0.8295 C   0  0  0  0  0  0  0  0  0  0  0  0
    0.1828   -2.7417    0.9791 C   0  0  0  0  0  0  0  0  0  0  0  0
    1.3591   -2.0134    0.5180 C   0  0  0  0  0  0  0  0  0  0  0  0
   -4.9268    1.0088   -0.3003 C   0  0  0  0  0  0  0  0  0  0  0  0
    2.6652   -2.1786    0.9056 C   0  0  0  0  0  0  0  0  0  0  0  0
    3.4500   -1.2406    0.1782 C   0  0  0  0  0  0  0  0  0  0  0  0
    2.5763   -0.5238   -0.6422 C   0  0  0  0  0  0  0  0  0  0  0  0
   -4.9738    2.7683    1.4681 C   0  0  0  0  0  0  0  0  0  0  0  0
   -5.9975    1.6047   -0.9575 C   0  0  0  0  0  0  0  0  0  0  0  0
    4.8241   -0.9316    0.1390 C   0  0  0  0  0  0  0  0  0  0  0  0
    3.0098    0.4905   -1.5031 C   0  0  0  0  0  0  0  0  0  0  0  0
   -5.8790   -0.1130   -2.5984 C   0  0  0  0  0  0  0  0  0  0  0  0
    5.2723    0.0804   -0.7178 C   0  0  0  0  0  0  0  0  0  0  0  0
   -6.4886    1.0394   -2.1291 C   0  0  0  0  0  0  0  0  0  0  0  0
    4.3772    0.7793   -1.5253 C   0  0  0  0  0  0  0  0  0  0  0  0
   -6.2506    2.4241    2.2241 C   0  0  0  0  0  0  0  0  0  0  0  0
   -3.9367    3.3980    2.3886 C   0  0  0  0  0  0  0  0  0  0  0  0
    7.1816    1.4844    1.6394 C   0  0  0  0  0  0  0  0  0  0  0  0
  1  3  2  0
  1  4  2  0
  1 10  1  0
  1 32  1  0
  2 16  2  0
  5 11  1  0
  5 12  1  0
  5 15  1  0
  6 13  1  0
  6 14  1  0
  6 16  1  0
  7 17  1  0
  7 21  1  0
  8 18  1  0
  8 22  1  0
  9 15  2  0
  9 26  1  0
 10 27  1  0
 11 13  1  0
 12 14  1  0
 15 18  1  0
 16 17  1  0
 17 19  2  0
 18 23  2  0
 19 20  1  0
 20 21  2  0
 20 24  1  0
 21 25  1  0
 22 30  1  0
 22 31  1  0
 23 28  1  0
 24 27  2  0
 25 29  2  0
 26 28  2  0
 27 29  1  0
M  END
>  <PUBCHEM_COMPOUND_CID>  (1) 
5625

>  <PUBCHEM_CONFORMER_RMSD>  (1) 
1

>  <PUBCHEM_CONFORMER_DIVERSEORDER>  (1) 
10
66
85
143
136
90
134
95
34
26
43
64
114
56
76
44
106
140
33
105
68
15
98
127
61
107
24
116
78
47
138
23
57
118
145
93
96
36
103
17
62
123
80
128
60
94
49
110
147
87
59
89
83
22
111
101
46
109
14
18
141
92
86
54
37
135
91
9
99
58
102
30
88
112
39
2
71
146
119
63
52
97
133
8
69
72
5
79
129
131
113
48
12
40
42
144
70
74
81
77
84
121
11
35
50
122
55
73
31
137
142
100
108
32
4
28
38
13
104
20
51
3
126
53
29
82
124
16
65
25
7
130
125
75
6
132
27
139
41
1
45
115
21
117
120
19
67

>  <PUBCHEM_MMFF94_PARTIAL_CHARGES>  (1) 
39
1 1.33
10 -0.76
11 0.37
12 0.37
13 0.3
14 0.3
15 0.41
16 0.71
17 -0.24
18 0.1
19 -0.15
2 -0.57
21 -0.15
22 0.37
23 -0.15
24 -0.15
25 -0.15
26 0.16
27 0.2
28 -0.15
29 -0.15
3 -0.65
32 0.11
4 -0.65
41 0.15
42 0.27
43 0.4
45 0.15
46 0.15
47 0.15
48 0.15
49 0.15
5 -0.84
50 0.15
57 0.42
6 -0.66
7 0.03
8 -0.87
9 -0.62

>  <PUBCHEM_EFFECTIVE_ROTOR_COUNT>  (1) 
8.2

>  <PUBCHEM_PHARMACOPHORE_FEATURES>  (1) 
15
1 10 donor
1 2 acceptor
1 3 acceptor
1 4 acceptor
1 5 cation
1 7 cation
1 7 donor
1 8 cation
1 8 donor
1 9 acceptor
3 22 30 31 hydrophobe
5 7 17 19 20 21 rings
6 20 21 24 25 27 29 rings
6 5 6 11 12 13 14 rings
6 9 15 18 23 26 28 rings

>  <PUBCHEM_HEAVY_ATOM_COUNT>  (1) 
32

>  <PUBCHEM_ATOM_DEF_STEREO_COUNT>  (1) 
0

>  <PUBCHEM_ATOM_UDEF_STEREO_COUNT>  (1) 
0

>  <PUBCHEM_BOND_DEF_STEREO_COUNT>  (1) 
0

>  <PUBCHEM_BOND_UDEF_STEREO_COUNT>  (1) 
0

>  <PUBCHEM_ISOTOPIC_ATOM_COUNT>  (1) 
0

>  <PUBCHEM_COMPONENT_COUNT>  (1) 
1

>  <PUBCHEM_CACTVS_TAUTO_COUNT>  (1) 
2

>  <PUBCHEM_CONFORMER_ID>  (1) 
000015F90000000A

>  <PUBCHEM_MMFF94_ENERGY>  (1) 
105.7014

>  <PUBCHEM_FEATURE_SELFOVERLAP>  (1) 
76.234

>  <PUBCHEM_SHAPE_FINGERPRINT>  (1) 
10319926 262 14418142764280215011
11135609 187 18261385612783246197
11135609 201 18409176506463704267
11273773 42 18343303652505129301
11475781 23 18409733985045430742
11476731 118 17987795341040450584
11963148 33 9942987524797416484
12061779 8 18127986208818021073
12895837 130 18130514105728671013
1361 87 13470677153649037237
13673619 4 9223238451236490174
13690498 29 17560228267236808847
14123256 34 11600006574121244086
14289278 72 13190622689805282592
14394314 77 18337676309145589749
14950920 106 13045951221923584583
15021287 119 17615686237925191339
15131766 46 18264765468567320085
15188451 53 12396598355273622025
15289351 153 18342452661197684696
15352257 5 11241963777117784072
15685185 35 18410018766429949857
15773879 53 18059846290674131872
20511986 3 18260254266146072886
21033648 144 18186516596876597135
21033648 29 16153715263270846295
21033650 10 17346319242136081483
21298829 104 18259700090794883652
21774942 28 18130792227185256224
25269216 80 17203322330673956799
2748736 6 18334008411084026876
2838139 119 18337393725406835694
312425 54 13334735700343294217
3610482 184 17988371356320444589
393628 179 18200019768350861432
393628 194 18410020961068996148
4169191 19 18334295392288159884
445580 204 18343868796833385240
46194498 28 15840398507050094427
50677037 204 18411140203618170121
5104073 3 17894632573956681250
543368 44 18411699868632922141
6058803 2 17981873152664931963
6371009 1 18260545623985366172
6608658 132 18201434710987667857
6712543 237 13262395544675725217
7970288 3 10054710571225137504
999808 66 10159706802195200404

>  <PUBCHEM_SHAPE_MULTIPOLES>  (1) 
614.9
21.73
3.82
2.09
20.59
0.11
0.21
-21.72
5.21
-0.92
-2.76
-3.59
-0.89
-2.9

>  <PUBCHEM_SHAPE_SELFOVERLAP>  (1) 
1303.609

>  <PUBCHEM_SHAPE_VOLUME>  (1) 
346.7

>  <PUBCHEM_COORDINATE_TYPE>  (1) 
2
5
10

$$$$
