5655
     RDKit          3D

 21 24  0  0  0  0  0  0  0  0999 V2000
   -5.8752    2.5372   -0.0423 Br  0  0  0  0  0  0  0  0  0  0  0  0
    0.2763   -2.1099   -0.0121 O   0  0  0  0  0  0  0  0  0  0  0  0
    2.0036    0.6720    0.8809 N   0  0  0  0  0  0  0  0  0  0  0  0
   -2.0818   -2.1454    0.1244 N   0  0  0  0  0  0  0  0  0  0  0  0
    3.3247    0.4541    0.6076 C   0  0  0  0  0  0  0  0  0  0  0  0
    3.4660    0.2828   -0.7552 C   0  0  0  0  0  0  0  0  0  0  0  0
    4.4097    0.3824    1.6208 C   0  0  0  0  0  0  0  0  0  0  0  0
    4.7867    0.0397   -1.3976 C   0  0  0  0  0  0  0  0  0  0  0  0
    5.7795    0.4708    0.9210 C   0  0  0  0  0  0  0  0  0  0  0  0
    5.8392   -0.3897   -0.3563 C   0  0  0  0  0  0  0  0  0  0  0  0
    2.1767    0.4094   -1.3266 C   0  0  0  0  0  0  0  0  0  0  0  0
    1.2932    0.6475   -0.2938 C   0  0  0  0  0  0  0  0  0  0  0  0
   -0.0941    0.8518   -0.2316 C   0  0  0  0  0  0  0  0  0  0  0  0
   -1.0880   -0.0958   -0.0982 C   0  0  0  0  0  0  0  0  0  0  0  0
   -2.5316    0.1044   -0.0325 C   0  0  0  0  0  0  0  0  0  0  0  0
   -3.0866   -1.1717    0.1024 C   0  0  0  0  0  0  0  0  0  0  0  0
   -0.8135   -1.5682    0.0056 C   0  0  0  0  0  0  0  0  0  0  0  0
   -3.3402    1.2242   -0.0782 C   0  0  0  0  0  0  0  0  0  0  0  0
   -4.4487   -1.3794    0.1961 C   0  0  0  0  0  0  0  0  0  0  0  0
   -4.7235    1.0366    0.0149 C   0  0  0  0  0  0  0  0  0  0  0  0
   -5.2722   -0.2527    0.1507 C   0  0  0  0  0  0  0  0  0  0  0  0
  1 20  1  0
  2 17  2  0
  3  5  1  0
  3 12  1  0
  4 16  1  0
  4 17  1  0
  5  6  2  0
  5  7  1  0
  6  8  1  0
  6 11  1  0
  7  9  1  0
  8 10  1  0
  9 10  1  0
 11 12  2  0
 12 13  1  0
 13 14  2  0
 14 15  1  0
 14 17  1  0
 15 16  2  0
 15 18  1  0
 16 19  1  0
 18 20  2  0
 19 21  2  0
 20 21  1  0
M  END
>  <PUBCHEM_COMPOUND_CID>  (1) 
5655

>  <PUBCHEM_CONFORMER_RMSD>  (1) 
0.6

>  <PUBCHEM_CONFORMER_DIVERSEORDER>  (1) 
1
2
3

>  <PUBCHEM_MMFF94_PARTIAL_CHARGES>  (1) 
26
1 -0.11
11 -0.15
12 -0.2
13 -0.11
14 -0.01
15 0.03
16 0.12
17 0.62
18 -0.15
19 -0.15
2 -0.57
20 0.11
21 -0.15
3 0.03
30 0.27
31 0.15
32 0.15
33 0.37
34 0.15
35 0.15
36 0.15
4 -0.55
5 -0.33
6 -0.18
7 0.18
8 0.18

>  <PUBCHEM_EFFECTIVE_ROTOR_COUNT>  (1) 
2

>  <PUBCHEM_PHARMACOPHORE_FEATURES>  (1) 
9
1 1 hydrophobe
1 2 acceptor
1 3 cation
1 3 donor
1 4 donor
5 3 5 6 11 12 rings
5 4 14 15 16 17 rings
6 15 16 18 19 20 21 rings
6 5 6 7 8 9 10 rings

>  <PUBCHEM_HEAVY_ATOM_COUNT>  (1) 
21

>  <PUBCHEM_ATOM_DEF_STEREO_COUNT>  (1) 
0

>  <PUBCHEM_ATOM_UDEF_STEREO_COUNT>  (1) 
0

>  <PUBCHEM_BOND_DEF_STEREO_COUNT>  (1) 
0

>  <PUBCHEM_BOND_UDEF_STEREO_COUNT>  (1) 
1

>  <PUBCHEM_ISOTOPIC_ATOM_COUNT>  (1) 
0

>  <PUBCHEM_COMPONENT_COUNT>  (1) 
1

>  <PUBCHEM_CACTVS_TAUTO_COUNT>  (1) 
2

>  <PUBCHEM_CONFORMER_ID>  (1) 
0000161700000001

>  <PUBCHEM_MMFF94_ENERGY>  (1) 
54.6907

>  <PUBCHEM_FEATURE_SELFOVERLAP>  (1) 
45.845

>  <PUBCHEM_SHAPE_FINGERPRINT>  (1) 
10411042 1 17905890628570534683
10912923 1 17530685441347626829
11315181 36 18041278858920708401
11545043 162 18343302608506024667
11646440 116 18130798862645952385
11796584 16 18413112749717731758
12107183 9 17173470391488735408
12236239 1 17676489458220412372
12390115 104 18270410391244366145
12403259 415 18201720673650964297
12616971 3 17095245821345347797
128620 24 9655582906882012008
13533116 47 17845658045501723958
13675066 3 18130790104600700894
13760787 5 16515683364209786164
14251764 18 17748829618394088433
14386348 63 17989494039053910254
14466204 15 18409444761262279225
14573314 32 18202287987333200428
15042514 8 18121504811311183035
15142383 8 16515674503513179660
15183329 4 17894348877990864934
15196674 1 18409731729301571239
15238133 3 18333734606708072748
15375358 24 17918276471751838628
1601671 61 18261111850602655916
17804303 29 18337954592348591233
17844677 252 18339647835881713121
1813 80 16588023477191966182
18335252 98 7925622328747489016
19489759 90 18343018900352028457
200 152 14979962458086224739
20645477 70 16558758884328397092
20681677 155 18186804703377335898
21033648 29 17845922000715770072
21267235 1 18334866060529673579
21279426 13 18198911318172832159
21421861 104 17604981521344169522
220451 1 17240485801479528968
2215653 11 17917998248192004446
23402539 116 18343297076609447661
23522609 53 17313970540041100596
23559900 14 18273220815852759468
2916195 48 18059567018487531689
3004659 81 18333738992660791022
351380 180 17775565355455567248
3545911 37 18413111637236260165
4214541 1 18409731776614601389
495365 180 17418086612190589406
5104073 3 18041001803228345817
5265222 85 18268158737464714022
5283173 99 17917714552243123872
5385378 56 18266183821033399691
542803 24 17530966890733894852
559249 180 18334293154093032315
59755656 215 18341335470234083798
7226269 152 18272653433039720201
9981440 41 18334861598127543795

>  <PUBCHEM_SHAPE_MULTIPOLES>  (1) 
422.28
14.7
1.86
1.05
2.78
0.27
-0.02
-4.91
-1.07
-3.35
-0.06
1.68
-0.17
0.42

>  <PUBCHEM_SHAPE_SELFOVERLAP>  (1) 
925.222

>  <PUBCHEM_SHAPE_VOLUME>  (1) 
234.6

>  <PUBCHEM_COORDINATE_TYPE>  (1) 
2
5
10

$$$$
