5679
     RDKit          3D

 19 20  0  0  0  0  0  0  0  0999 V2000
    0.4891   -0.6798   -1.3429 S   0  0  0  0  0  0  0  0  0  0  0  0
    1.1480   -1.9714   -1.4467 O   0  0  0  0  0  0  0  0  0  0  0  0
    0.1218    0.0422   -2.5497 O   0  0  0  0  0  0  0  0  0  0  0  0
    1.4279    0.3430   -0.3505 N   0  0  0  0  0  0  0  0  0  0  0  0
    6.6766    0.4443   -0.1036 N   0  0  0  0  0  0  0  0  0  0  0  0
    3.1397    0.5364    1.4053 C   0  0  0  0  0  0  0  0  0  0  0  0
    1.8086   -0.0900    1.0016 C   0  0  0  0  0  0  0  0  0  0  0  0
   -0.9721   -0.8794   -0.3871 C   0  0  0  0  0  0  0  0  0  0  0  0
    4.2789    0.1607    0.4493 C   0  0  0  0  0  0  0  0  0  0  0  0
   -1.8934    0.1601   -0.1794 C   0  0  0  0  0  0  0  0  0  0  0  0
   -3.0459   -0.0832    0.6051 C   0  0  0  0  0  0  0  0  0  0  0  0
    5.6068    0.8311    0.8082 C   0  0  0  0  0  0  0  0  0  0  0  0
   -1.1838   -2.1406    0.1708 C   0  0  0  0  0  0  0  0  0  0  0  0
   -1.6964    1.4356   -0.7332 C   0  0  0  0  0  0  0  0  0  0  0  0
   -3.2432   -1.3589    1.1587 C   0  0  0  0  0  0  0  0  0  0  0  0
   -2.3174   -2.3799    0.9421 C   0  0  0  0  0  0  0  0  0  0  0  0
   -3.9674    0.9560    0.8128 C   0  0  0  0  0  0  0  0  0  0  0  0
   -2.6221    2.4565   -0.5162 C   0  0  0  0  0  0  0  0  0  0  0  0
   -3.7556    2.2172    0.2553 C   0  0  0  0  0  0  0  0  0  0  0  0
  1  2  2  0
  1  3  2  0
  1  4  1  0
  1  8  1  0
  4  7  1  0
  5 12  1  0
  6  7  1  0
  6  9  1  0
  8 10  2  0
  8 13  1  0
  9 12  1  0
 10 11  1  0
 10 14  1  0
 11 15  2  0
 11 17  1  0
 13 16  2  0
 14 18  2  0
 15 16  1  0
 17 19  2  0
 18 19  1  0
M  END
>  <PUBCHEM_COMPOUND_CID>  (1) 
5679

>  <PUBCHEM_CONFORMER_RMSD>  (1) 
0.8

>  <PUBCHEM_CONFORMER_DIVERSEORDER>  (1) 
1
28
29
26
6
18
15
21
37
14
39
12
19
20
13
33
23
5
16
34
31
32
8
17
4
35
7
30
22
9
2
27
38
10
3
25
24
36
11

>  <PUBCHEM_MMFF94_PARTIAL_CHARGES>  (1) 
25
1 1.45
12 0.27
13 -0.15
14 -0.15
15 -0.15
16 -0.15
17 -0.15
18 -0.15
19 -0.15
2 -0.65
26 0.42
29 0.15
3 -0.65
30 0.15
31 0.15
32 0.15
33 0.15
34 0.15
35 0.15
36 0.36
37 0.36
4 -0.91
5 -0.99
7 0.36
8 -0.01

>  <PUBCHEM_EFFECTIVE_ROTOR_COUNT>  (1) 
6

>  <PUBCHEM_PHARMACOPHORE_FEATURES>  (1) 
7
1 2 acceptor
1 3 acceptor
1 4 donor
1 5 cation
1 5 donor
6 10 11 14 17 18 19 rings
6 8 10 11 13 15 16 rings

>  <PUBCHEM_HEAVY_ATOM_COUNT>  (1) 
19

>  <PUBCHEM_ATOM_DEF_STEREO_COUNT>  (1) 
0

>  <PUBCHEM_ATOM_UDEF_STEREO_COUNT>  (1) 
0

>  <PUBCHEM_BOND_DEF_STEREO_COUNT>  (1) 
0

>  <PUBCHEM_BOND_UDEF_STEREO_COUNT>  (1) 
0

>  <PUBCHEM_ISOTOPIC_ATOM_COUNT>  (1) 
0

>  <PUBCHEM_COMPONENT_COUNT>  (1) 
1

>  <PUBCHEM_CACTVS_TAUTO_COUNT>  (1) 
1

>  <PUBCHEM_CONFORMER_ID>  (1) 
0000162F00000001

>  <PUBCHEM_MMFF94_ENERGY>  (1) 
28.4509

>  <PUBCHEM_FEATURE_SELFOVERLAP>  (1) 
35.565

>  <PUBCHEM_SHAPE_FINGERPRINT>  (1) 
10366900 7 18339346556799868114
11273773 46 18127141771646623654
12011746 2 18410563003358120085
121448 382 11240002273689500252
12633257 1 18334861623158797297
12892183 10 17749672870244124803
13994607 96 18341884191098568645
14178342 30 18040726861192421179
14341114 328 17821450171001953944
14420673 8 18044372726229303306
15209289 33 17385721430759215768
16945 1 18116174211493093719
17093844 174 17988632031065693474
17980427 23 18333733537477358165
17980427 26 17835224663511282175
1813 80 15719398278926502662
18219364 16 17417811785342893603
18915476 22 17417260831233539422
19784866 240 15864355808799466779
200 152 13840256001309132114
21650355 55 18189618426737358307
22112679 90 17313116262387055559
23402539 116 18340197605350571303
23419403 2 15727524563293159543
23559900 14 18193862361242646790
23622692 88 17749108889567260357
27216 239 18201992274497822625
2748010 2 17900851278980010059
7097593 13 17967805020917966258
81228 2 18264791977010285435
90127 26 18129935793484217544
90316 7 17822008696812143029

>  <PUBCHEM_SHAPE_MULTIPOLES>  (1) 
373.16
9.97
2.34
1.51
19.81
0.18
0.69
-4.41
-3.86
-3.05
-0.04
0.31
0.24
0.91

>  <PUBCHEM_SHAPE_SELFOVERLAP>  (1) 
768.721

>  <PUBCHEM_SHAPE_VOLUME>  (1) 
214

>  <PUBCHEM_COORDINATE_TYPE>  (1) 
2
5
10

$$$$
