5691
     RDKit          3D

 31 35  0  0  1  0  0  0  0  0999 V2000
   -0.7708   -2.2801   -0.2480 O   0  0  0  0  0  0  0  0  0  0  0  0
    3.2900   -1.1051   -0.9437 O   0  0  0  0  0  0  0  0  0  0  0  0
    2.4476    3.1029    0.4974 O   0  0  0  0  0  0  0  0  0  0  0  0
   -4.6547   -0.0926   -1.2923 O   0  0  0  0  0  0  0  0  0  0  0  0
   -0.2972    3.4738    1.2908 O   0  0  0  0  0  0  0  0  0  0  0  0
    2.8300   -2.6712    1.2576 O   0  0  0  0  0  0  0  0  0  0  0  0
    5.2229    0.1144   -1.0416 O   0  0  0  0  0  0  0  0  0  0  0  0
   -2.5744   -3.4204   -1.1335 O   0  0  0  0  0  0  0  0  0  0  0  0
   -3.2810    0.3348    0.6770 C   0  0  0  0  0  0  0  0  0  0  0  0
   -2.3051    1.5211    0.8889 C   0  0  0  0  0  0  0  0  0  0  0  0
   -0.4219    0.1393   -0.1700 C   0  0  0  0  0  0  0  0  0  0  0  0
   -2.5599   -1.0041    0.6242 C   0  0  0  0  0  0  0  0  0  0  0  0
    1.0061   -0.0088   -0.8039 C   0  0  0  0  0  0  0  0  0  0  0  0
   -0.8682    1.2883    0.4263 C   0  0  0  0  0  0  0  0  0  0  0  0
   -1.4028   -1.0112   -0.3782 C   0  0  0  0  0  0  0  0  0  0  0  0
   -2.9904    2.6707    0.1162 C   0  0  0  0  0  0  0  0  0  0  0  0
   -3.9287    0.6686   -0.6639 C   0  0  0  0  0  0  0  0  0  0  0  0
   -3.5597    2.0418   -1.1471 C   0  0  0  0  0  0  0  0  0  0  0  0
   -4.3852    0.3102    1.7415 C   0  0  0  0  0  0  0  0  0  0  0  0
    1.8353    1.1529   -0.4034 C   0  0  0  0  0  0  0  0  0  0  0  0
    1.9032   -1.2456   -0.4181 C   0  0  0  0  0  0  0  0  0  0  0  0
    0.0730    2.4695    0.6936 C   0  0  0  0  0  0  0  0  0  0  0  0
    1.4066    2.2679    0.2405 C   0  0  0  0  0  0  0  0  0  0  0  0
    0.8313    0.0124   -2.3440 C   0  0  0  0  0  0  0  0  0  0  0  0
    3.2327    1.1959   -0.4169 C   0  0  0  0  0  0  0  0  0  0  0  0
    2.0068   -1.5360    1.0829 C   0  0  0  0  0  0  0  0  0  0  0  0
    4.0198    0.0629   -0.8199 C   0  0  0  0  0  0  0  0  0  0  0  0
    3.5739    2.4371    0.0721 C   0  0  0  0  0  0  0  0  0  0  0  0
   -1.5815   -3.3664   -0.4203 C   0  0  0  0  0  0  0  0  0  0  0  0
   -1.0767   -4.5122    0.4034 C   0  0  0  0  0  0  0  0  0  0  0  0
    2.9792   -3.0110    2.6326 C   0  0  0  0  0  0  0  0  0  0  0  0
  1 15  1  0
  1 29  1  0
  2 21  1  0
  2 27  1  0
  3 23  1  0
  3 28  1  0
  4 17  2  0
  5 22  2  0
  6 26  1  0
  6 31  1  0
  7 27  2  0
  8 29  2  0
  9 10  1  0
  9 12  1  0
  9 17  1  0
  9 19  1  0
 10 14  1  0
 10 16  1  0
 11 13  1  0
 11 14  2  0
 11 15  1  0
 12 15  1  0
 13 20  1  0
 13 21  1  0
 13 24  1  0
 14 22  1  0
 16 18  1  0
 17 18  1  0
 20 23  2  0
 20 25  1  0
 21 26  1  0
 22 23  1  0
 25 27  1  0
 25 28  2  0
 29 30  1  0
M  END
>  <PUBCHEM_COMPOUND_CID>  (1) 
5691

>  <PUBCHEM_CONFORMER_RMSD>  (1) 
0.8

>  <PUBCHEM_CONFORMER_DIVERSEORDER>  (1) 
2
41
27
16
30
33
35
9
26
29
6
50
19
47
25
15
4
24
22
49
8
11
45
10
18
42
37
40
32
1
5
20
39
34
48
21
13
31
44
43
23
46
28
14
7
38
17
3
36
12

>  <PUBCHEM_MMFF94_PARTIAL_CHARGES>  (1) 
28
1 -0.43
10 0.14
11 -0.28
13 0.32
14 -0.12
15 0.42
17 0.45
18 0.06
2 -0.43
20 -0.18
21 0.28
22 0.64
23 0.05
25 -0.09
26 0.28
27 0.81
28 -0.01
29 0.66
3 -0.28
30 0.06
31 0.28
4 -0.57
49 0.15
5 -0.57
6 -0.56
7 -0.57
8 -0.57
9 0.06

>  <PUBCHEM_EFFECTIVE_ROTOR_COUNT>  (1) 
5.2

>  <PUBCHEM_PHARMACOPHORE_FEATURES>  (1) 
11
1 3 acceptor
1 4 acceptor
1 5 acceptor
1 6 acceptor
1 7 acceptor
1 8 acceptor
5 3 20 23 25 28 rings
5 9 10 16 17 18 rings
6 11 13 14 20 22 23 rings
6 2 13 20 21 25 27 rings
6 9 10 11 12 14 15 rings

>  <PUBCHEM_HEAVY_ATOM_COUNT>  (1) 
31

>  <PUBCHEM_ATOM_DEF_STEREO_COUNT>  (1) 
0

>  <PUBCHEM_ATOM_UDEF_STEREO_COUNT>  (1) 
5

>  <PUBCHEM_BOND_DEF_STEREO_COUNT>  (1) 
0

>  <PUBCHEM_BOND_UDEF_STEREO_COUNT>  (1) 
0

>  <PUBCHEM_ISOTOPIC_ATOM_COUNT>  (1) 
0

>  <PUBCHEM_COMPONENT_COUNT>  (1) 
1

>  <PUBCHEM_CACTVS_TAUTO_COUNT>  (1) 
2

>  <PUBCHEM_CONFORMER_ID>  (1) 
0000163B00000002

>  <PUBCHEM_MMFF94_ENERGY>  (1) 
89.0357

>  <PUBCHEM_FEATURE_SELFOVERLAP>  (1) 
56.345

>  <PUBCHEM_SHAPE_FINGERPRINT>  (1) 
10411042 1 16538215308690913721
10675989 125 17472980601606548365
10906281 52 17844273824201320452
10967382 1 18342466953698988388
1100329 8 18411985780052334810
11578080 2 17460028483964955332
12553582 1 18342461387410524560
12633257 1 18343026600716693768
12788726 201 18056203475058709680
13140716 1 18200037381768661592
13224815 77 17632290155714478793
13583140 156 17967818245164429395
14117953 113 17618492191034143111
14223421 5 18053946439499866525
14790565 3 18198925638048107873
16728300 4 17825379687445686347
16945 1 18341617078365849428
17349148 13 17989199313707634485
19319366 153 18041575701544014786
19591789 44 18340216227806156979
20691752 17 17615980236339981001
20775438 99 17339520059766808015
20905425 154 17983864655061886004
21033648 144 18201438142012624380
21033648 29 18409724062917277941
21421861 104 18262793111377228939
22393880 68 18412539882141459885
229495 10 17604417488958769038
23558518 356 17975703001903218958
23559900 14 18129384787533996950
3380486 145 18052274074214929313
34934 24 18272088344245150684
484989 97 18267022937521545679
5171179 24 16253605619455298339
9709674 26 18200035186570712748
9896288 288 17477195030661270522

>  <PUBCHEM_SHAPE_MULTIPOLES>  (1) 
591.01
7.78
4.64
1.6
0.2
3.47
-0.25
-1.42
0.47
-0.01
-1.32
0.28
0.65
-1.25

>  <PUBCHEM_SHAPE_SELFOVERLAP>  (1) 
1312.057

>  <PUBCHEM_SHAPE_VOLUME>  (1) 
314.6

>  <PUBCHEM_COORDINATE_TYPE>  (1) 
2
5
10

$$$$
