5703
     RDKit          3D

 16 18  0  0  0  0  0  0  0  0999 V2000
    0.4496    1.6814   -0.2398 S   0  0  0  0  0  0  0  0  0  0  0  0
    0.1331   -2.0866    0.3019 O   0  0  0  0  0  0  0  0  0  0  0  0
   -0.4084    0.1854   -0.0252 N   0  0  0  0  0  0  0  0  0  0  0  0
    3.1965    1.4931   -0.2140 N   0  0  0  0  0  0  0  0  0  0  0  0
    1.8574   -0.4920    0.0723 C   0  0  0  0  0  0  0  0  0  0  0  0
   -1.7960    0.1396   -0.0202 C   0  0  0  0  0  0  0  0  0  0  0  0
    0.4492   -0.9180    0.1337 C   0  0  0  0  0  0  0  0  0  0  0  0
    2.0122    0.8645   -0.1232 C   0  0  0  0  0  0  0  0  0  0  0  0
    2.9773   -1.2965    0.1885 C   0  0  0  0  0  0  0  0  0  0  0  0
   -2.4650   -1.0040   -0.4672 C   0  0  0  0  0  0  0  0  0  0  0  0
   -2.5348    1.2377    0.4309 C   0  0  0  0  0  0  0  0  0  0  0  0
    4.2264   -0.6880    0.1008 C   0  0  0  0  0  0  0  0  0  0  0  0
   -3.8592   -1.0490   -0.4631 C   0  0  0  0  0  0  0  0  0  0  0  0
   -3.9290    1.1927    0.4350 C   0  0  0  0  0  0  0  0  0  0  0  0
    4.2819    0.6904   -0.0983 C   0  0  0  0  0  0  0  0  0  0  0  0
   -4.5911    0.0493   -0.0119 C   0  0  0  0  0  0  0  0  0  0  0  0
  1  3  1  0
  1  8  1  0
  2  7  2  0
  3  6  1  0
  3  7  1  0
  4  8  2  0
  4 15  1  0
  5  7  1  0
  5  8  1  0
  5  9  2  0
  6 10  2  0
  6 11  1  0
  9 12  1  0
 10 13  1  0
 11 14  2  0
 12 15  2  0
 13 16  2  0
 14 16  1  0
M  END
>  <PUBCHEM_COMPOUND_CID>  (1) 
5703

>  <PUBCHEM_CONFORMER_RMSD>  (1) 
0.6

>  <PUBCHEM_CONFORMER_DIVERSEORDER>  (1) 
1

>  <PUBCHEM_MMFF94_PARTIAL_CHARGES>  (1) 
24
1 -0.09
10 -0.15
11 -0.15
12 -0.15
13 -0.15
14 -0.15
15 0.16
16 -0.15
17 0.15
18 0.15
19 0.15
2 -0.57
20 0.15
21 0.15
22 0.15
23 0.15
24 0.15
3 -0.19
4 -0.62
5 0.09
6 0.12
7 0.54
8 0.41
9 -0.15

>  <PUBCHEM_EFFECTIVE_ROTOR_COUNT>  (1) 
1

>  <PUBCHEM_PHARMACOPHORE_FEATURES>  (1) 
5
1 2 acceptor
1 4 acceptor
5 1 3 5 7 8 rings
6 4 5 8 9 12 15 rings
6 6 10 11 13 14 16 rings

>  <PUBCHEM_HEAVY_ATOM_COUNT>  (1) 
16

>  <PUBCHEM_ATOM_DEF_STEREO_COUNT>  (1) 
0

>  <PUBCHEM_ATOM_UDEF_STEREO_COUNT>  (1) 
0

>  <PUBCHEM_BOND_DEF_STEREO_COUNT>  (1) 
0

>  <PUBCHEM_BOND_UDEF_STEREO_COUNT>  (1) 
0

>  <PUBCHEM_ISOTOPIC_ATOM_COUNT>  (1) 
0

>  <PUBCHEM_COMPONENT_COUNT>  (1) 
1

>  <PUBCHEM_CACTVS_TAUTO_COUNT>  (1) 
1

>  <PUBCHEM_CONFORMER_ID>  (1) 
0000164700000001

>  <PUBCHEM_MMFF94_ENERGY>  (1) 
51.9896

>  <PUBCHEM_FEATURE_SELFOVERLAP>  (1) 
25.443

>  <PUBCHEM_SHAPE_FINGERPRINT>  (1) 
10062212 137 18342168968952277519
10616163 171 18343301508942363839
11132069 177 18412257324669024640
11401426 45 18411414020667302072
11471102 20 18335419067285417676
11806522 49 18338794619427410519
12107183 9 17692535511524508833
12236239 1 18272651242832719365
13167823 11 18413387639791814959
13760787 5 17967254187193822292
13862211 1 18335415730296730554
14144814 61 18410575089053043833
14251717 144 18408319990657002446
14325111 11 18411138043211735552
15196674 1 18410855464428416845
15442244 35 18267585697941959058
15536298 74 18342738516101838652
15775835 57 18412548712483047357
15848702 151 18129385908167267206
16945 1 16877663456945615420
17802600 8 18410568487667503085
17834072 33 18341611546500252149
17862501 102 18410849932774433362
18186145 218 18334855000450614974
18522853 276 18342455945723987721
19050596 39 18412263926139149737
19422 9 18342458136114980703
200 152 18343575257767982013
20279233 1 16225765220376594881
20645477 70 18410572851338627198
21267235 1 18411708676951606055
221490 88 18191873529090587795
23402539 116 18343576348214921526
23402655 69 18412825776449223916
23463225 33 18409448059617255596
23559900 14 18201998867758113432
4214541 1 18412826863350366629
474 4 17896322587536686980
4990 188 18059866047375005982
5104073 3 18411700993244279123
57096353 35 18341047518768444261
69090 78 18411979186892627806
77779 3 18413390934047308325
9709674 26 18341338854695310230
9981440 41 17401479845846526360

>  <PUBCHEM_SHAPE_MULTIPOLES>  (1) 
317.29
8.91
1.75
0.68
1.11
0.02
-0.01
-0.28
-0.01
-0.19
0.02
0.14
-0.01
-0.6

>  <PUBCHEM_SHAPE_SELFOVERLAP>  (1) 
691.147

>  <PUBCHEM_SHAPE_VOLUME>  (1) 
174.9

>  <PUBCHEM_COORDINATE_TYPE>  (1) 
2
5
10

$$$$
