5719
     RDKit          3D

 23 25  0  0  0  0  0  0  0  0999 V2000
   -2.3117    2.4669   -0.1697 O   0  0  0  0  0  0  0  0  0  0  0  0
   -3.6728    0.5603    0.1170 N   0  0  0  0  0  0  0  0  0  0  0  0
    1.9691   -0.1876    0.1911 N   0  0  0  0  0  0  0  0  0  0  0  0
    1.8928    0.4912    1.3705 N   0  0  0  0  0  0  0  0  0  0  0  0
    3.5533   -0.6351   -1.5712 N   0  0  0  0  0  0  0  0  0  0  0  0
    6.4393    1.4665    0.1742 N   0  0  0  0  0  0  0  0  0  0  0  0
   -0.3753   -1.0991    0.1551 C   0  0  0  0  0  0  0  0  0  0  0  0
   -2.6568   -0.3471    0.4187 C   0  0  0  0  0  0  0  0  0  0  0  0
    0.9620   -0.9358   -0.4427 C   0  0  0  0  0  0  0  0  0  0  0  0
   -1.3910   -0.1914   -0.1464 C   0  0  0  0  0  0  0  0  0  0  0  0
   -5.0778    0.0539    0.0323 C   0  0  0  0  0  0  0  0  0  0  0  0
   -0.6264   -2.1626    1.0225 C   0  0  0  0  0  0  0  0  0  0  0  0
   -2.9074   -1.4106    1.2859 C   0  0  0  0  0  0  0  0  0  0  0  0
    3.2377   -0.0517   -0.3812 C   0  0  0  0  0  0  0  0  0  0  0  0
   -1.8922   -2.3183    1.5878 C   0  0  0  0  0  0  0  0  0  0  0  0
    1.2315   -1.5281   -1.6183 C   0  0  0  0  0  0  0  0  0  0  0  0
   -3.4265    1.9399   -0.2044 C   0  0  0  0  0  0  0  0  0  0  0  0
   -5.3582   -0.4780   -1.3601 C   0  0  0  0  0  0  0  0  0  0  0  0
    3.9739    0.7305    0.4789 C   0  0  0  0  0  0  0  0  0  0  0  0
    2.6068   -1.3189   -2.1353 C   0  0  0  0  0  0  0  0  0  0  0  0
    3.0995    1.0311    1.5296 C   0  0  0  0  0  0  0  0  0  0  0  0
   -4.5960    2.7897   -0.6461 C   0  0  0  0  0  0  0  0  0  0  0  0
    5.3261    1.1342    0.3117 C   0  0  0  0  0  0  0  0  0  0  0  0
  1 17  2  0
  2  8  1  0
  2 11  1  0
  2 17  1  0
  3  4  1  0
  3  9  1  0
  3 14  1  0
  4 21  2  0
  5 14  1  0
  5 20  2  0
  6 23  3  0
  7  9  1  0
  7 10  1  0
  7 12  2  0
  8 10  2  0
  8 13  1  0
  9 16  2  0
 11 18  1  0
 12 15  1  0
 13 15  2  0
 14 19  2  0
 16 20  1  0
 17 22  1  0
 19 21  1  0
 19 23  1  0
M  END
>  <PUBCHEM_COMPOUND_CID>  (1) 
5719

>  <PUBCHEM_CONFORMER_RMSD>  (1) 
0.6

>  <PUBCHEM_CONFORMER_DIVERSEORDER>  (1) 
1
47
22
16
80
48
21
13
49
41
62
3
38
20
55
71
6
85
39
73
36
64
83
9
50
33
69
11
7
52
60
23
18
58
42
17
25
81
68
51
46
8
82
5
24
26
29
34
37
59
76
72
56
14
40
10
54
44
27
2
84
19
86
15
57
75
70
4
45
12
74
28
53
63
61
43
32
79
67
65
78
87
77
66
35
30
88
31

>  <PUBCHEM_MMFF94_PARTIAL_CHARGES>  (1) 
29
1 -0.57
10 -0.15
11 0.3
12 -0.15
13 -0.15
14 -0.03
15 -0.15
16 -0.14
17 0.57
19 0.02
2 -0.48
20 0.38
21 0.14
22 0.06
23 0.54
24 0.15
27 0.15
28 0.15
29 0.15
3 0.6
30 0.15
34 0.06
35 0.15
4 -0.71
5 -0.58
6 -0.56
7 0.03
8 0.12
9 -0.06

>  <PUBCHEM_EFFECTIVE_ROTOR_COUNT>  (1) 
4

>  <PUBCHEM_PHARMACOPHORE_FEATURES>  (1) 
7
1 1 acceptor
1 4 acceptor
1 5 acceptor
1 6 acceptor
5 3 4 14 19 21 rings
6 3 5 9 14 16 20 rings
6 7 8 10 12 13 15 rings

>  <PUBCHEM_HEAVY_ATOM_COUNT>  (1) 
23

>  <PUBCHEM_ATOM_DEF_STEREO_COUNT>  (1) 
0

>  <PUBCHEM_ATOM_UDEF_STEREO_COUNT>  (1) 
0

>  <PUBCHEM_BOND_DEF_STEREO_COUNT>  (1) 
0

>  <PUBCHEM_BOND_UDEF_STEREO_COUNT>  (1) 
0

>  <PUBCHEM_ISOTOPIC_ATOM_COUNT>  (1) 
0

>  <PUBCHEM_COMPONENT_COUNT>  (1) 
1

>  <PUBCHEM_CACTVS_TAUTO_COUNT>  (1) 
1

>  <PUBCHEM_CONFORMER_ID>  (1) 
0000165700000001

>  <PUBCHEM_MMFF94_ENERGY>  (1) 
73.8373

>  <PUBCHEM_FEATURE_SELFOVERLAP>  (1) 
35.651

>  <PUBCHEM_SHAPE_FINGERPRINT>  (1) 
10366900 7 18272367606970630969
10498660 4 18263643961974145573
11640471 11 16805617970357366835
11725454 13 18271232872268801707
12107183 9 17825090538042341202
12236239 1 16515683385690059866
12403259 415 18339654342962407503
12596602 18 16805605927311462096
12670546 177 17703785925401995279
13257819 101 18272930553299244836
13402501 40 18342171180729040616
13583140 156 18341333396166378130
13911987 19 17345202284330056512
13965767 371 17096925759206618301
14178342 30 17894920662745346258
14251764 38 18408887373128170853
15537594 2 12391516386438828749
15961568 22 18410011061200871652
17349148 13 17894629266852766799
19930381 70 17202466974662114953
200 152 15913332394263968611
20600515 1 18040445385935804829
20645477 70 17417821599802373846
21033648 29 18189349999897523529
23402539 116 18335131051015791815
235170 7 17632010858665619157
23557571 272 18338804545165780323
23559900 14 18188791465234254230
26918003 58 12252179666958952301
2838139 119 18341885325254654092
341906 21 18113340807933973477
3633792 109 17169244010942203123
4325135 7 17346596417813254815
495365 180 18130219355235057618
5104073 3 18042974173123348689
7808743 9 18260548935077765584
7970288 3 11455589016243687181
9849439 229 17825103702175989037
9981440 41 18041000614081282067

>  <PUBCHEM_SHAPE_MULTIPOLES>  (1) 
442.55
11.89
2.44
1.58
3.87
0.77
-0.37
7.21
-1.23
-2.2
0.22
0.66
-0.8
2.01

>  <PUBCHEM_SHAPE_SELFOVERLAP>  (1) 
958.688

>  <PUBCHEM_SHAPE_VOLUME>  (1) 
239.2

>  <PUBCHEM_COORDINATE_TYPE>  (1) 
2
5
10

$$$$
