5760
     RDKit          3D

 22 24  0  0  1  0  0  0  0  0999 V2000
    0.1614   -0.6148    0.5255 O   0  0  0  0  0  0  0  0  0  0  0  0
   -2.1281   -2.7199    0.4367 O   0  0  0  0  0  0  0  0  0  0  0  0
   -2.2596   -1.7989   -1.6779 O   0  0  0  0  0  0  0  0  0  0  0  0
    1.4096   -0.6424    2.4595 O   0  0  0  0  0  0  0  0  0  0  0  0
   -2.6261    1.9894    0.1550 N   0  0  0  0  0  0  0  0  0  0  0  0
   -2.4579    0.7975   -0.7009 C   0  0  0  0  0  0  0  0  0  0  0  0
   -1.2434    2.2831    0.5744 C   0  0  0  0  0  0  0  0  0  0  0  0
   -2.2548   -0.3868    0.2761 C   0  0  0  0  0  0  0  0  0  0  0  0
   -1.2178    1.1167   -1.5465 C   0  0  0  0  0  0  0  0  0  0  0  0
   -0.4136    2.1052   -0.6999 C   0  0  0  0  0  0  0  0  0  0  0  0
   -0.8818    1.2486    1.6657 C   0  0  0  0  0  0  0  0  0  0  0  0
   -1.0316   -0.2124    1.1992 C   0  0  0  0  0  0  0  0  0  0  0  0
   -3.2593    3.1059   -0.5417 C   0  0  0  0  0  0  0  0  0  0  0  0
   -2.2163   -1.6960   -0.4593 C   0  0  0  0  0  0  0  0  0  0  0  0
    1.3088   -0.5240    1.2482 C   0  0  0  0  0  0  0  0  0  0  0  0
   -2.0834   -4.0324   -0.1319 C   0  0  0  0  0  0  0  0  0  0  0  0
    2.4654   -0.2529    0.3575 C   0  0  0  0  0  0  0  0  0  0  0  0
    3.5337    0.4668    0.8523 C   0  0  0  0  0  0  0  0  0  0  0  0
    2.4363   -0.7294   -0.9371 C   0  0  0  0  0  0  0  0  0  0  0  0
    4.6205    0.7213    0.0157 C   0  0  0  0  0  0  0  0  0  0  0  0
    3.5231   -0.4749   -1.7736 C   0  0  0  0  0  0  0  0  0  0  0  0
    4.6152    0.2505   -1.2971 C   0  0  0  0  0  0  0  0  0  0  0  0
  1 12  1  0
  1 15  1  0
  2 14  1  0
  2 16  1  0
  3 14  2  0
  4 15  2  0
  5  6  1  0
  5  7  1  0
  5 13  1  0
  6  8  1  0
  6  9  1  0
  7 10  1  0
  7 11  1  0
  8 12  1  0
  8 14  1  0
  9 10  1  0
 11 12  1  0
 15 17  1  0
 17 18  2  0
 17 19  1  0
 18 20  1  0
 19 21  2  0
 20 22  2  0
 21 22  1  0
M  END
>  <PUBCHEM_COMPOUND_CID>  (1) 
5760

>  <PUBCHEM_CONFORMER_RMSD>  (1) 
0.8

>  <PUBCHEM_CONFORMER_DIVERSEORDER>  (1) 
1
6
23
15
21
5
22
13
10
19
2
17
7
16
18
14
12
3
8
20
11
9
4

>  <PUBCHEM_MMFF94_PARTIAL_CHARGES>  (1) 
24
1 -0.43
12 0.28
13 0.27
14 0.66
15 0.63
16 0.28
17 0.09
18 -0.15
19 -0.15
2 -0.43
20 -0.15
21 -0.15
22 -0.15
3 -0.57
39 0.15
4 -0.57
40 0.15
41 0.15
42 0.15
43 0.15
5 -0.81
6 0.27
7 0.27
8 0.06

>  <PUBCHEM_EFFECTIVE_ROTOR_COUNT>  (1) 
6.2

>  <PUBCHEM_PHARMACOPHORE_FEATURES>  (1) 
5
1 3 acceptor
1 4 acceptor
1 5 cation
6 17 18 19 20 21 22 rings
8 5 6 7 8 9 10 11 12 rings

>  <PUBCHEM_HEAVY_ATOM_COUNT>  (1) 
22

>  <PUBCHEM_ATOM_DEF_STEREO_COUNT>  (1) 
2

>  <PUBCHEM_ATOM_UDEF_STEREO_COUNT>  (1) 
2

>  <PUBCHEM_BOND_DEF_STEREO_COUNT>  (1) 
0

>  <PUBCHEM_BOND_UDEF_STEREO_COUNT>  (1) 
0

>  <PUBCHEM_ISOTOPIC_ATOM_COUNT>  (1) 
0

>  <PUBCHEM_COMPONENT_COUNT>  (1) 
1

>  <PUBCHEM_CACTVS_TAUTO_COUNT>  (1) 
1

>  <PUBCHEM_CONFORMER_ID>  (1) 
0000168000000001

>  <PUBCHEM_MMFF94_ENERGY>  (1) 
63.9974

>  <PUBCHEM_FEATURE_SELFOVERLAP>  (1) 
25.371

>  <PUBCHEM_SHAPE_FINGERPRINT>  (1) 
10498660 4 18337391526605678516
10764073 3 15906916658285906659
107951 10 18199477566898416455
11640471 11 17749383716040052728
11759241 127 18198346363129235284
121448 382 17749947873158813842
12173636 292 18266454296203616069
12553582 1 18192701465873944307
12596599 1 18341347629909510468
12788726 201 18335973247010904027
12969540 114 18263636265408666645
13224815 77 17240208729160885612
14142880 1 17676775305268277653
15163728 17 17834690292081233973
16752209 62 18338502063698690349
16945 1 18339343215790032809
17357779 13 17915725681969246215
1813 80 18051987105727464547
18785283 64 17544199281583561971
192875 21 16660913487431225900
20645476 183 18263079925108583433
20871999 31 18343576344036096197
20905425 154 17687169203275584241
21452121 199 17761203715130949591
21756936 100 16952003650651235132
21864079 5 17459775708044047348
22620623 9 18272652371944966383
23227448 37 18410295834585617924
23402539 116 18261111902975433860
23419403 2 17542467945448201484
23557571 272 18272085032914795960
23559900 14 18129662998799824866
458136 41 17836934404261544929
4921388 177 18271534138781502742
633830 44 17240779350173836926
7615 1 17677592238365682994
81228 2 18270666658688660523

>  <PUBCHEM_SHAPE_MULTIPOLES>  (1) 
424.29
6.94
3.26
1.72
8.65
2.05
-0.26
-1.18
2.18
-5.06
0.46
0.69
0.06
0.08

>  <PUBCHEM_SHAPE_SELFOVERLAP>  (1) 
910.282

>  <PUBCHEM_SHAPE_VOLUME>  (1) 
234.4

>  <PUBCHEM_COORDINATE_TYPE>  (1) 
2
5
10

$$$$
