5767
     RDKit          3D

 28 32  0  0  1  0  0  0  0  0999 V2000
    6.9833    0.5528   -1.0032 O   0  0  0  0  0  0  0  0  0  0  0  0
   -3.3923   -0.1032   -0.7699 O   0  0  0  0  0  0  0  0  0  0  0  0
   -3.4304    0.6596    1.4321 O   0  0  0  0  0  0  0  0  0  0  0  0
    5.0179    0.7477    0.4688 C   0  0  0  0  0  0  0  0  0  0  0  0
    4.4820   -0.6316    0.0296 C   0  0  0  0  0  0  0  0  0  0  0  0
    2.9613   -0.7321    0.1681 C   0  0  0  0  0  0  0  0  0  0  0  0
    2.3000    0.3358   -0.7540 C   0  0  0  0  0  0  0  0  0  0  0  0
    6.5382    0.5060    0.3487 C   0  0  0  0  0  0  0  0  0  0  0  0
    4.4063    1.8038   -0.4633 C   0  0  0  0  0  0  0  0  0  0  0  0
    5.3555   -1.6180    0.7969 C   0  0  0  0  0  0  0  0  0  0  0  0
    2.8662    1.7511   -0.4648 C   0  0  0  0  0  0  0  0  0  0  0  0
    6.7347   -0.9346    0.8650 C   0  0  0  0  0  0  0  0  0  0  0  0
    2.4267   -2.1149   -0.2109 C   0  0  0  0  0  0  0  0  0  0  0  0
    4.7067    1.1169    1.9421 C   0  0  0  0  0  0  0  0  0  0  0  0
    0.7777    0.2294   -0.7228 C   0  0  0  0  0  0  0  0  0  0  0  0
    0.9328   -2.1929    0.0895 C   0  0  0  0  0  0  0  0  0  0  0  0
    0.1511   -0.9841   -0.3634 C   0  0  0  0  0  0  0  0  0  0  0  0
   -0.0354    1.3005   -1.1339 C   0  0  0  0  0  0  0  0  0  0  0  0
   -1.2519   -1.0776   -0.3723 C   0  0  0  0  0  0  0  0  0  0  0  0
   -1.4276    1.1912   -1.1468 C   0  0  0  0  0  0  0  0  0  0  0  0
   -2.0365    0.0040   -0.7616 C   0  0  0  0  0  0  0  0  0  0  0  0
   -4.0070    0.2625    0.4306 C   0  0  0  0  0  0  0  0  0  0  0  0
   -5.4830    0.1196    0.3451 C   0  0  0  0  0  0  0  0  0  0  0  0
   -6.2785    0.9639    1.0915 C   0  0  0  0  0  0  0  0  0  0  0  0
   -6.0115   -0.8530   -0.4782 C   0  0  0  0  0  0  0  0  0  0  0  0
   -7.6646    0.8298    1.0108 C   0  0  0  0  0  0  0  0  0  0  0  0
   -7.3975   -0.9870   -0.5592 C   0  0  0  0  0  0  0  0  0  0  0  0
   -8.2242   -0.1456    0.1854 C   0  0  0  0  0  0  0  0  0  0  0  0
  1  8  1  0
  2 21  1  0
  2 22  1  0
  3 22  2  0
  4  5  1  0
  4  8  1  0
  4  9  1  0
  4 14  1  0
  5  6  1  0
  5 10  1  0
  6  7  1  0
  6 13  1  0
  7 11  1  0
  7 15  1  0
  8 12  1  0
  9 11  1  0
 10 12  1  0
 13 16  1  0
 15 17  2  0
 15 18  1  0
 16 17  1  0
 17 19  1  0
 18 20  2  0
 19 21  2  0
 20 21  1  0
 22 23  1  0
 23 24  2  0
 23 25  1  0
 24 26  1  0
 25 27  2  0
 26 28  2  0
 27 28  1  0
M  END
>  <PUBCHEM_COMPOUND_CID>  (1) 
5767

>  <PUBCHEM_CONFORMER_RMSD>  (1) 
0.8

>  <PUBCHEM_CONFORMER_DIVERSEORDER>  (1) 
1
20
23
14
17
26
18
8
24
22
25
3
19
21
11
16
7
15
5
9
6
4
10
13
12
2

>  <PUBCHEM_MMFF94_PARTIAL_CHARGES>  (1) 
28
1 -0.68
15 -0.14
16 0.14
17 -0.14
18 -0.15
19 -0.15
2 -0.23
20 -0.15
21 0.08
22 0.63
23 0.09
24 -0.15
25 -0.15
26 -0.15
27 -0.15
28 -0.15
3 -0.57
48 0.4
49 0.15
50 0.15
51 0.15
52 0.15
53 0.15
54 0.15
55 0.15
56 0.15
7 0.14
8 0.28

>  <PUBCHEM_EFFECTIVE_ROTOR_COUNT>  (1) 
4.4

>  <PUBCHEM_PHARMACOPHORE_FEATURES>  (1) 
8
1 1 acceptor
1 1 donor
1 3 acceptor
5 4 5 8 10 12 rings
6 15 17 18 19 20 21 rings
6 23 24 25 26 27 28 rings
6 4 5 6 7 9 11 rings
6 6 7 13 15 16 17 rings

>  <PUBCHEM_HEAVY_ATOM_COUNT>  (1) 
28

>  <PUBCHEM_ATOM_DEF_STEREO_COUNT>  (1) 
5

>  <PUBCHEM_ATOM_UDEF_STEREO_COUNT>  (1) 
0

>  <PUBCHEM_BOND_DEF_STEREO_COUNT>  (1) 
0

>  <PUBCHEM_BOND_UDEF_STEREO_COUNT>  (1) 
0

>  <PUBCHEM_ISOTOPIC_ATOM_COUNT>  (1) 
0

>  <PUBCHEM_COMPONENT_COUNT>  (1) 
1

>  <PUBCHEM_CACTVS_TAUTO_COUNT>  (1) 
1

>  <PUBCHEM_CONFORMER_ID>  (1) 
0000168700000001

>  <PUBCHEM_MMFF94_ENERGY>  (1) 
104.5295

>  <PUBCHEM_FEATURE_SELFOVERLAP>  (1) 
40.694

>  <PUBCHEM_SHAPE_FINGERPRINT>  (1) 
10 15 17894631473890631980
10162869 55 18410848898357221807
10165383 225 18412545427719172294
10299344 5 18411138038916748783
106641 1 18409448111425940587
10670039 82 14189304725043404619
10835480 77 11023523827707639474
11135609 127 13110661888250410442
11315181 36 18272932727169523939
11456790 92 18201711839293484530
11524674 6 16443068314109577763
11719270 70 18335137587798013995
11724838 91 18341891913412473151
11796584 16 14562538383318170905
12236239 1 18131070424816816967
12516196 113 18408323281198238597
12596602 18 17917712392517697067
13533116 47 18271525304250546434
13540713 4 17899689068538575919
13668630 136 12901545728201700009
13685833 64 17530684303191803989
13692114 37 18270675488773058847
13782708 43 16370721548207530055
14251764 18 18410856568598963431
14251764 46 18344146995330063742
14849402 71 18341332304923197689
15131766 46 15696001934550719720
15183329 4 9511463316696786333
15301273 46 17676487228968699685
15419008 145 18270393872404799720
15419008 47 16588015823507407037
15461852 350 17060328627595360325
15475509 35 16081632423684360592
15840311 113 17775282793995075456
15849732 13 15626503899875147753
19841028 212 12973869391702281856
20511986 3 18342167848814879479
21130935 74 18411418397609008635
21267235 1 18261109626806511638
22224240 67 18408882953463937067
22956985 138 17026544878127272290
23559900 14 14924234870947694493
23569917 315 18410579508834173039
23576562 1 11311186864258871865
3178227 256 18186521003670856298
335352 9 18408888456234785518
3383291 50 16877953745938971737
34797466 226 15913052053179800857
350125 39 18408039607061252460
3663271 9 18201722821762450907
4073 2 18041847336349691427
4093350 32 17560806489450466678
4325135 7 18273777151471992935
4340502 62 18272651246568816583
465052 167 17312820472779972140
5104073 3 18263916808535151650
54039377 194 17968371227480562602
5758199 1 18413108368333917115
59682541 35 18261113006265162001
59755656 215 15719386218378286811

>  <PUBCHEM_SHAPE_MULTIPOLES>  (1) 
558.62
22.54
1.77
1.2
25.96
0.35
0.27
-0.85
6.11
-1.72
-0.06
-0.16
-0.36
-1.06

>  <PUBCHEM_SHAPE_SELFOVERLAP>  (1) 
1228.624

>  <PUBCHEM_SHAPE_VOLUME>  (1) 
298.2

>  <PUBCHEM_COORDINATE_TYPE>  (1) 
2
5
10

$$$$
