5804
     RDKit          3D

 22 23  0  0  0  0  0  0  0  0999 V2000
   -0.6597   -1.5891    3.0502 I   0  0  0  0  0  0  0  0  0  0  0  0
   -0.6450   -1.5696   -3.0527 I   0  0  0  0  0  0  0  0  0  0  0  0
   -2.3003    3.5343    0.0076 I   0  0  0  0  0  0  0  0  0  0  0  0
   -1.6982   -1.8245   -0.0045 O   0  0  0  0  0  0  0  0  0  0  0  0
    5.8384    2.5913    0.0334 O   0  0  0  0  0  0  0  0  0  0  0  0
    6.4249    0.3986   -0.0507 O   0  0  0  0  0  0  0  0  0  0  0  0
   -5.3333    2.3212   -0.0031 O   0  0  0  0  0  0  0  0  0  0  0  0
    3.7995   -0.5337    0.0127 C   0  0  0  0  0  0  0  0  0  0  0  0
    2.3473   -0.8741    0.0081 C   0  0  0  0  0  0  0  0  0  0  0  0
    4.0799    0.9736    0.0184 C   0  0  0  0  0  0  0  0  0  0  0  0
    1.6714   -1.0297   -1.2020 C   0  0  0  0  0  0  0  0  0  0  0  0
    1.6655   -1.0372    1.2140 C   0  0  0  0  0  0  0  0  0  0  0  0
   -0.3685   -1.5114   -0.0003 C   0  0  0  0  0  0  0  0  0  0  0  0
    0.3076   -1.3560    1.2097 C   0  0  0  0  0  0  0  0  0  0  0  0
    0.3134   -1.3483   -1.2062 C   0  0  0  0  0  0  0  0  0  0  0  0
   -2.6009   -0.7775   -0.0039 C   0  0  0  0  0  0  0  0  0  0  0  0
    5.5607    1.2651   -0.0131 C   0  0  0  0  0  0  0  0  0  0  0  0
   -2.1281    0.5236    0.0005 C   0  0  0  0  0  0  0  0  0  0  0  0
   -3.9570   -1.0551   -0.0081 C   0  0  0  0  0  0  0  0  0  0  0  0
   -3.0395    1.5795    0.0008 C   0  0  0  0  0  0  0  0  0  0  0  0
   -4.8684    0.0010   -0.0078 C   0  0  0  0  0  0  0  0  0  0  0  0
   -4.4096    1.3182   -0.0032 C   0  0  0  0  0  0  0  0  0  0  0  0
  1 14  1  0
  2 15  1  0
  3 20  1  0
  4 13  1  0
  4 16  1  0
  5 17  1  0
  6 17  2  0
  7 22  1  0
  8  9  1  0
  8 10  1  0
  9 11  2  0
  9 12  1  0
 10 17  1  0
 11 15  1  0
 12 14  2  0
 13 14  1  0
 13 15  2  0
 16 18  2  0
 16 19  1  0
 18 20  1  0
 19 21  2  0
 20 22  2  0
 21 22  1  0
M  END
>  <PUBCHEM_COMPOUND_CID>  (1) 
5804

>  <PUBCHEM_CONFORMER_RMSD>  (1) 
0.8

>  <PUBCHEM_CONFORMER_DIVERSEORDER>  (1) 
1
27
12
26
6
24
19
11
31
23
7
10
28
9
4
8
17
18
15
14
22
20
13
30
5
16
21
25
29
2
3

>  <PUBCHEM_MMFF94_PARTIAL_CHARGES>  (1) 
29
1 -0.08
10 0.06
11 -0.15
12 -0.15
13 0.08
14 0.08
15 0.08
16 0.08
17 0.66
18 -0.15
19 -0.15
2 -0.08
20 0.08
21 -0.15
22 0.08
27 0.15
28 0.15
29 0.15
3 -0.08
30 0.15
31 0.15
32 0.5
33 0.45
4 -0.17
5 -0.65
6 -0.57
7 -0.53
8 0.14
9 -0.14

>  <PUBCHEM_EFFECTIVE_ROTOR_COUNT>  (1) 
5

>  <PUBCHEM_PHARMACOPHORE_FEATURES>  (1) 
10
1 1 hydrophobe
1 2 hydrophobe
1 3 hydrophobe
1 4 acceptor
1 5 acceptor
1 6 acceptor
1 7 donor
3 5 6 17 anion
6 16 18 19 20 21 22 rings
6 9 11 12 13 14 15 rings

>  <PUBCHEM_HEAVY_ATOM_COUNT>  (1) 
22

>  <PUBCHEM_ATOM_DEF_STEREO_COUNT>  (1) 
0

>  <PUBCHEM_ATOM_UDEF_STEREO_COUNT>  (1) 
0

>  <PUBCHEM_BOND_DEF_STEREO_COUNT>  (1) 
0

>  <PUBCHEM_BOND_UDEF_STEREO_COUNT>  (1) 
0

>  <PUBCHEM_ISOTOPIC_ATOM_COUNT>  (1) 
0

>  <PUBCHEM_COMPONENT_COUNT>  (1) 
1

>  <PUBCHEM_CACTVS_TAUTO_COUNT>  (1) 
3

>  <PUBCHEM_CONFORMER_ID>  (1) 
000016AC00000001

>  <PUBCHEM_MMFF94_ENERGY>  (1) 
64.1739

>  <PUBCHEM_FEATURE_SELFOVERLAP>  (1) 
50.804

>  <PUBCHEM_SHAPE_FINGERPRINT>  (1) 
10165383 225 17275108332107080455
10498660 4 18266740186865363437
11796584 16 8646498418019570481
12596602 18 17385721408894262072
12895836 83 17774716554117186924
12895837 130 18055913436508021572
12969540 114 16630516345777457710
13140716 1 15503230045156717774
13402501 40 18342738533234956320
13911987 19 16702305663067480078
13965767 371 16958734615781224813
14251751 18 9007056872544166296
14341114 328 18260825969110734545
14739800 52 18336250306898294080
14787075 74 18187080697849176201
15163728 17 17916882221998347453
15209294 21 17894345592599495314
15238133 3 18040725783582521388
15961568 22 18411702058470781141
17980427 23 18408606972314803765
17980427 26 18190166906703866446
20511986 3 17677319525681321183
21637258 2 9439402393716371130
21756936 100 18338789109221811470
21857420 4 13378179372089247040
23114952 82 17343791383109340391
23227448 37 18341331209658181084
23559900 14 18054793879724543535
244849 19 18118150046478561370
2838139 119 18341889706110694692
2916195 48 18334295378917467480
3472631 163 18338515215005011165
392239 28 17895491322533712329
4340502 62 16806466699794295849
44802255 64 17988088906539068126
46194498 28 17558274220087983125
474 4 17894635872084790726
484985 159 14086835137550126733
5104073 3 17967535631958407355
57527585 21 17772452518274992133
59755656 520 17676485056048077282
7237137 82 16844161449527719934
7808743 9 18412259506744636641
9981440 41 18333740129782912274

>  <PUBCHEM_SHAPE_MULTIPOLES>  (1) 
465.08
11.19
3.14
2.21
12.63
3.21
-0.02
9.8
-0.03
-1.32
0.04
-0.34
-2.33
0.01

>  <PUBCHEM_SHAPE_SELFOVERLAP>  (1) 
927.141

>  <PUBCHEM_SHAPE_VOLUME>  (1) 
284.1

>  <PUBCHEM_COORDINATE_TYPE>  (1) 
2
5
10

$$$$
