5806
     RDKit          3D

 15 15  0  0  1  0  0  0  0  0999 V2000
    2.9777   -2.5035   -0.5684 Cl  0  0  0  0  0  0  0  0  0  0  0  0
    4.9710   -0.2970    0.7103 Cl  0  0  0  0  0  0  0  0  0  0  0  0
   -0.9681    0.9836   -1.8691 O   0  0  0  0  0  0  0  0  0  0  0  0
   -3.1127    0.4980   -0.0108 N   0  0  0  0  0  0  0  0  0  0  0  0
   -1.7327    0.1396    0.2777 C   0  0  0  0  0  0  0  0  0  0  0  0
   -0.7620    1.0701   -0.4597 C   0  0  0  0  0  0  0  0  0  0  0  0
   -4.0365   -0.3918    0.6914 C   0  0  0  0  0  0  0  0  0  0  0  0
    0.6786    0.7102   -0.1696 C   0  0  0  0  0  0  0  0  0  0  0  0
   -3.8055   -1.8384    0.2637 C   0  0  0  0  0  0  0  0  0  0  0  0
   -5.4716    0.0407    0.4088 C   0  0  0  0  0  0  0  0  0  0  0  0
    1.1278   -0.5665   -0.4602 C   0  0  0  0  0  0  0  0  0  0  0  0
    1.5169    1.6657    0.3785 C   0  0  0  0  0  0  0  0  0  0  0  0
    2.4565   -0.8979   -0.1945 C   0  0  0  0  0  0  0  0  0  0  0  0
    2.8454    1.3344    0.6442 C   0  0  0  0  0  0  0  0  0  0  0  0
    3.3153    0.0527    0.3577 C   0  0  0  0  0  0  0  0  0  0  0  0
  1 13  1  0
  2 15  1  0
  3  6  1  0
  4  5  1  0
  4  7  1  0
  5  6  1  0
  6  8  1  0
  7  9  1  0
  7 10  1  0
  8 11  2  0
  8 12  1  0
 11 13  1  0
 12 14  2  0
 13 15  2  0
 14 15  1  0
M  END
>  <PUBCHEM_COMPOUND_CID>  (1) 
5806

>  <PUBCHEM_CONFORMER_RMSD>  (1) 
0.6

>  <PUBCHEM_CONFORMER_DIVERSEORDER>  (1) 
1
34
42
47
37
8
43
6
45
3
48
25
11
15
13
46
38
19
16
5
44
23
14
27
12
9
40
41
2
39
24
49
32
4
7
17
18
33
22
31
20
36
10
29
26
30
28
21
35

>  <PUBCHEM_MMFF94_PARTIAL_CHARGES>  (1) 
18
1 -0.18
11 -0.15
12 -0.15
13 0.18
14 -0.15
15 0.18
2 -0.18
20 0.36
27 0.15
28 0.15
29 0.4
3 -0.68
30 0.15
4 -0.9
5 0.27
6 0.42
7 0.27
8 -0.14

>  <PUBCHEM_EFFECTIVE_ROTOR_COUNT>  (1) 
4

>  <PUBCHEM_PHARMACOPHORE_FEATURES>  (1) 
6
1 3 acceptor
1 3 donor
1 4 cation
1 4 donor
3 7 9 10 hydrophobe
6 8 11 12 13 14 15 rings

>  <PUBCHEM_HEAVY_ATOM_COUNT>  (1) 
15

>  <PUBCHEM_ATOM_DEF_STEREO_COUNT>  (1) 
0

>  <PUBCHEM_ATOM_UDEF_STEREO_COUNT>  (1) 
1

>  <PUBCHEM_BOND_DEF_STEREO_COUNT>  (1) 
0

>  <PUBCHEM_BOND_UDEF_STEREO_COUNT>  (1) 
0

>  <PUBCHEM_ISOTOPIC_ATOM_COUNT>  (1) 
0

>  <PUBCHEM_COMPONENT_COUNT>  (1) 
1

>  <PUBCHEM_CACTVS_TAUTO_COUNT>  (1) 
1

>  <PUBCHEM_CONFORMER_ID>  (1) 
000016AE00000001

>  <PUBCHEM_MMFF94_ENERGY>  (1) 
24.7685

>  <PUBCHEM_FEATURE_SELFOVERLAP>  (1) 
30.448

>  <PUBCHEM_SHAPE_FINGERPRINT>  (1) 
11543360 7 11386374776659921129
12236239 1 16773792601859221133
12251169 10 18202563990363222895
12507560 40 17846219891020620665
12596602 18 16630240398112739355
12670543 26 8574443071051405256
13533116 47 18202286884038477259
13675066 3 17561079194414805064
14115302 16 14779271929278664088
14252887 29 18341897359779073154
14386348 63 18187366523606892563
14911166 2 7925628934433271888
14993402 34 13262395544891762536
15048467 5 13614514187132351066
15375462 189 17703500035098397968
15422964 175 18340485552425869364
15501101 241 18408605893740019445
16945 1 18129079192295375116
17834074 16 18410294700766596379
1813 80 17458354026307562661
18186145 218 11458425721671697917
19050596 39 18201439220243821225
19141452 34 18408324406680188563
20281475 54 18335991878066980285
20374829 77 17894629253724940467
20432913 95 18412550907427620299
20645477 70 18411980252408546687
20871998 22 18339928108546661956
21065199 12 18342178886374467281
21119208 17 12757149082292079185
21637258 2 16371269058085644146
21673915 165 18269833288709462279
22224240 67 18201427117427037954
22485316 2 18409449189504949275
23402539 116 16298380236739804860
23557571 272 17749103357523055652
23559900 14 18411698828739354649
26918003 58 18342457054136624297
2748010 2 17768796586577884644
276578 36 14764355928692598156
31174 14 18413385428089398772
33824 294 18411699881085560746
4047638 21 11527950045383008744
42 15 18410577301341074425
5104073 3 18127401260210180578
9709674 26 18337116773437376571

>  <PUBCHEM_SHAPE_MULTIPOLES>  (1) 
301.58
10.02
1.89
0.97
8.14
0.93
-0.29
2.82
3.08
-1.14
-0.16
0.04
-0.14
0.75

>  <PUBCHEM_SHAPE_SELFOVERLAP>  (1) 
591.628

>  <PUBCHEM_SHAPE_VOLUME>  (1) 
184.1

>  <PUBCHEM_COORDINATE_TYPE>  (1) 
2
5
10

$$$$
