5812
     RDKit          3D

 12 12  0  0  0  0  0  0  0  0999 V2000
    1.7422   -2.7603    0.0001 Cl  0  0  0  0  0  0  0  0  0  0  0  0
    1.8553    2.7277   -0.0004 Cl  0  0  0  0  0  0  0  0  0  0  0  0
    3.4382   -0.0498   -0.0004 Cl  0  0  0  0  0  0  0  0  0  0  0  0
   -3.0893   -1.1733   -0.0010 O   0  0  0  0  0  0  0  0  0  0  0  0
   -3.2379    1.0948    0.0000 O   0  0  0  0  0  0  0  0  0  0  0  0
   -1.0889    0.0433    0.0004 C   0  0  0  0  0  0  0  0  0  0  0  0
   -0.3666    1.2367    0.0003 C   0  0  0  0  0  0  0  0  0  0  0  0
   -0.4165   -1.1788    0.0003 C   0  0  0  0  0  0  0  0  0  0  0  0
    0.9781   -1.2075    0.0001 C   0  0  0  0  0  0  0  0  0  0  0  0
    1.0280    1.2079    0.0002 C   0  0  0  0  0  0  0  0  0  0  0  0
    1.7003   -0.0142    0.0000 C   0  0  0  0  0  0  0  0  0  0  0  0
   -2.5430    0.0734    0.0003 C   0  0  0  0  0  0  0  0  0  0  0  0
  1  9  1  0
  2 10  1  0
  3 11  1  0
  4 12  1  0
  5 12  2  0
  6  7  2  0
  6  8  1  0
  6 12  1  0
  7 10  1  0
  8  9  2  0
  9 11  1  0
 10 11  2  0
M  END
>  <PUBCHEM_COMPOUND_CID>  (1) 
5812

>  <PUBCHEM_CONFORMER_RMSD>  (1) 
0.4

>  <PUBCHEM_CONFORMER_DIVERSEORDER>  (1) 
1
2

>  <PUBCHEM_MMFF94_PARTIAL_CHARGES>  (1) 
15
1 -0.18
10 0.18
11 0.18
12 0.63
13 0.15
14 0.15
15 0.5
2 -0.18
3 -0.18
4 -0.65
5 -0.57
6 0.09
7 -0.15
8 -0.15
9 0.18

>  <PUBCHEM_EFFECTIVE_ROTOR_COUNT>  (1) 
1

>  <PUBCHEM_PHARMACOPHORE_FEATURES>  (1) 
4
1 4 acceptor
1 5 acceptor
3 4 5 12 anion
6 6 7 8 9 10 11 rings

>  <PUBCHEM_HEAVY_ATOM_COUNT>  (1) 
12

>  <PUBCHEM_ATOM_DEF_STEREO_COUNT>  (1) 
0

>  <PUBCHEM_ATOM_UDEF_STEREO_COUNT>  (1) 
0

>  <PUBCHEM_BOND_DEF_STEREO_COUNT>  (1) 
0

>  <PUBCHEM_BOND_UDEF_STEREO_COUNT>  (1) 
0

>  <PUBCHEM_ISOTOPIC_ATOM_COUNT>  (1) 
0

>  <PUBCHEM_COMPONENT_COUNT>  (1) 
1

>  <PUBCHEM_CACTVS_TAUTO_COUNT>  (1) 
1

>  <PUBCHEM_CONFORMER_ID>  (1) 
000016B400000001

>  <PUBCHEM_MMFF94_ENERGY>  (1) 
30.5436

>  <PUBCHEM_FEATURE_SELFOVERLAP>  (1) 
20.355

>  <PUBCHEM_SHAPE_FINGERPRINT>  (1) 
1 1 18338516442843035062
10967382 1 18338517417637087206
11471102 20 18410288082258754253
12032990 46 18411989026989796046
13380535 76 17980195610888627052
13380536 305 18338805627544699612
14325111 11 18338799043048793285
14648413 74 18408324376098329561
161256 15 18124316008823123126
16945 1 18410855451575182948
17990270 104 18409728430814030819
19021347 11 18410011039725475982
193761 8 17689999359506995974
20201158 50 18408039589517210723
20511035 2 18044383961551609670
20588541 1 18334580113969605862
20645476 183 17752503198437882126
20645477 70 18339636841361404551
20711985 365 17760646966962493636
20871998 22 18053948342429380582
21040471 1 18050286174060529536
2334 1 17978229683834218084
23402539 116 18271517633681302222
23402655 69 18268413652369278829
23463225 33 18335416821138971098
23526114 1 18338516472776365956
23552423 10 18411138056370924639
241688 4 17906173949601473776
2748010 2 18120660394347557964
5084963 1 18129946787740437441
528886 8 18411413999171308266
53812653 166 18341608205200357696
63268167 104 18338802204197172113
7364860 26 18413107255820953058
81228 2 17402898821446509154

>  <PUBCHEM_SHAPE_MULTIPOLES>  (1) 
240.83
4.6
2.67
0.61
2.22
0.07
0
-0.1
0
-1.82
0
-0.07
0
0

>  <PUBCHEM_SHAPE_SELFOVERLAP>  (1) 
481.395

>  <PUBCHEM_SHAPE_VOLUME>  (1) 
145.3

>  <PUBCHEM_COORDINATE_TYPE>  (1) 
2
5
10

$$$$
