5829
     RDKit          3D

  7  6  0  0  0  0  0  0  0  0999 V2000
   -1.2183   -0.1229   -0.2196 N   0  0  0  0  0  0  0  0  0  0  0  0
    1.2088   -0.1134    0.2121 N   0  0  0  0  0  0  0  0  0  0  0  0
   -0.0034    0.6963   -0.0295 C   0  0  0  0  0  0  0  0  0  0  0  0
   -1.4781   -0.9793    0.9410 C   0  0  0  0  0  0  0  0  0  0  0  0
   -2.3754    0.7399   -0.4687 C   0  0  0  0  0  0  0  0  0  0  0  0
    1.5155   -0.9794   -0.9298 C   0  0  0  0  0  0  0  0  0  0  0  0
    2.3509    0.7588    0.4946 C   0  0  0  0  0  0  0  0  0  0  0  0
  1  3  1  0
  1  4  1  0
  1  5  1  0
  2  3  1  0
  2  6  1  0
  2  7  1  0
M  END
>  <PUBCHEM_COMPOUND_CID>  (1) 
5829

>  <PUBCHEM_CONFORMER_RMSD>  (1) 
0.4

>  <PUBCHEM_CONFORMER_DIVERSEORDER>  (1) 
1
2

>  <PUBCHEM_MMFF94_PARTIAL_CHARGES>  (1) 
7
1 -0.81
2 -0.81
3 0.54
4 0.27
5 0.27
6 0.27
7 0.27

>  <PUBCHEM_EFFECTIVE_ROTOR_COUNT>  (1) 
2

>  <PUBCHEM_PHARMACOPHORE_FEATURES>  (1) 
2
1 1 cation
1 2 cation

>  <PUBCHEM_HEAVY_ATOM_COUNT>  (1) 
7

>  <PUBCHEM_ATOM_DEF_STEREO_COUNT>  (1) 
0

>  <PUBCHEM_ATOM_UDEF_STEREO_COUNT>  (1) 
0

>  <PUBCHEM_BOND_DEF_STEREO_COUNT>  (1) 
0

>  <PUBCHEM_BOND_UDEF_STEREO_COUNT>  (1) 
0

>  <PUBCHEM_ISOTOPIC_ATOM_COUNT>  (1) 
0

>  <PUBCHEM_COMPONENT_COUNT>  (1) 
1

>  <PUBCHEM_CACTVS_TAUTO_COUNT>  (1) 
1

>  <PUBCHEM_CONFORMER_ID>  (1) 
000016C500000001

>  <PUBCHEM_MMFF94_ENERGY>  (1) 
18.3204

>  <PUBCHEM_FEATURE_SELFOVERLAP>  (1) 
10.172

>  <PUBCHEM_SHAPE_FINGERPRINT>  (1) 
12932741 1 18411428301459915694
14390081 3 18272643562872453769
16714656 1 17530972341221369461
21040471 1 17749669571862202189
24536 1 18410301310562872909
29004967 10 18272096014797927776
5460574 1 8718829816317706877

>  <PUBCHEM_SHAPE_MULTIPOLES>  (1) 
134.09
3.34
1.14
0.94
0.03
0.11
0.01
-0.54
0
-0.01
0
-0.01
0.2
0.68

>  <PUBCHEM_SHAPE_SELFOVERLAP>  (1) 
231.989

>  <PUBCHEM_SHAPE_VOLUME>  (1) 
92

>  <PUBCHEM_COORDINATE_TYPE>  (1) 
2
5
10

$$$$
