5830
     RDKit          3D

 10  9  0  0  0  0  0  0  0  0999 V2000
    0.1559   -0.4732    1.0289 S   0  0  0  0  0  0  0  0  0  0  0  0
   -1.7158   -2.1686   -0.5228 S   0  0  0  0  0  0  0  0  0  0  0  0
    2.5932    0.3870    0.0635 N   0  0  0  0  0  0  0  0  0  0  0  0
   -2.1957    0.4876    0.0589 N   0  0  0  0  0  0  0  0  0  0  0  0
    1.2290    0.0352   -0.3606 C   0  0  0  0  0  0  0  0  0  0  0  0
    3.3626    0.8832   -1.0809 C   0  0  0  0  0  0  0  0  0  0  0  0
    3.2867   -0.7609    0.6570 C   0  0  0  0  0  0  0  0  0  0  0  0
   -1.3750   -0.6547    0.1448 C   0  0  0  0  0  0  0  0  0  0  0  0
   -3.4799    0.4806   -0.6460 C   0  0  0  0  0  0  0  0  0  0  0  0
   -1.8611    1.7838    0.6572 C   0  0  0  0  0  0  0  0  0  0  0  0
  1  5  1  0
  1  8  1  0
  2  8  2  0
  3  5  1  0
  3  6  1  0
  3  7  1  0
  4  8  1  0
  4  9  1  0
  4 10  1  0
M  END
>  <PUBCHEM_COMPOUND_CID>  (1) 
5830

>  <PUBCHEM_CONFORMER_RMSD>  (1) 
0.6

>  <PUBCHEM_CONFORMER_DIVERSEORDER>  (1) 
1
10
26
23
29
18
30
21
17
8
20
27
25
31
16
6
22
14
5
24
32
3
2
13
7
15
12
19
4
11
9
28

>  <PUBCHEM_MMFF94_PARTIAL_CHARGES>  (1) 
10
1 -0.37
10 0.3
2 -0.38
3 -0.81
4 -0.66
5 0.5
6 0.27
7 0.27
8 0.58
9 0.3

>  <PUBCHEM_EFFECTIVE_ROTOR_COUNT>  (1) 
4

>  <PUBCHEM_PHARMACOPHORE_FEATURES>  (1) 
2
1 2 acceptor
1 3 cation

>  <PUBCHEM_HEAVY_ATOM_COUNT>  (1) 
10

>  <PUBCHEM_ATOM_DEF_STEREO_COUNT>  (1) 
0

>  <PUBCHEM_ATOM_UDEF_STEREO_COUNT>  (1) 
0

>  <PUBCHEM_BOND_DEF_STEREO_COUNT>  (1) 
0

>  <PUBCHEM_BOND_UDEF_STEREO_COUNT>  (1) 
0

>  <PUBCHEM_ISOTOPIC_ATOM_COUNT>  (1) 
0

>  <PUBCHEM_COMPONENT_COUNT>  (1) 
1

>  <PUBCHEM_CACTVS_TAUTO_COUNT>  (1) 
1

>  <PUBCHEM_CONFORMER_ID>  (1) 
000016C600000001

>  <PUBCHEM_MMFF94_ENERGY>  (1) 
30.9112

>  <PUBCHEM_FEATURE_SELFOVERLAP>  (1) 
10.148

>  <PUBCHEM_SHAPE_FINGERPRINT>  (1) 
12162725 195 18410013204415172064
12716758 59 18201999910765116970
12897270 3 18202284740137386444
12932741 1 17275388741683806474
12932764 1 18270126832680866298
14325111 11 17894352189421082394
15669948 3 18341049717559863710
15775835 57 18040155119155556116
18511873 20 18261106314769476626
18534176 82 18202288043115157751
20201158 50 17203608189873480782
20279233 1 16988842795934431526
20653085 51 18263660492827936114
20711983 171 18408887360290144094
21524375 3 18263924328732885561
23402539 116 18129928010491676485
23557571 272 17915173740032399880
23598294 1 18339928241506551699
3248919 1 18343586222350087558
93112 12 18412832395410454582
9939556 21 18335135388937964002

>  <PUBCHEM_SHAPE_MULTIPOLES>  (1) 
203.53
6.01
1.76
1.04
2.99
0.43
-0.01
-1.13
1.32
-1.29
0.07
0.32
-0.04
-0.79

>  <PUBCHEM_SHAPE_SELFOVERLAP>  (1) 
345.806

>  <PUBCHEM_SHAPE_VOLUME>  (1) 
139.7

>  <PUBCHEM_COORDINATE_TYPE>  (1) 
2
5
10

$$$$
