5834
     RDKit          3D

 29 32  0  0  1  0  0  0  0  0999 V2000
   -2.2966   -0.6175    1.8967 O   0  0  0  0  0  0  0  0  0  0  0  0
    0.6059    1.2355   -2.0277 O   0  0  0  0  0  0  0  0  0  0  0  0
   -4.2100   -1.5843   -0.7683 O   0  0  0  0  0  0  0  0  0  0  0  0
   -5.5297    0.6493   -0.0695 O   0  0  0  0  0  0  0  0  0  0  0  0
    6.5850    1.6136    1.6176 O   0  0  0  0  0  0  0  0  0  0  0  0
   -5.7750    2.6465    1.0656 O   0  0  0  0  0  0  0  0  0  0  0  0
   -1.0971   -0.6568   -0.2500 C   0  0  0  0  0  0  0  0  0  0  0  0
    0.0354   -1.5111    0.3615 C   0  0  0  0  0  0  0  0  0  0  0  0
    1.4033   -1.2818   -0.2985 C   0  0  0  0  0  0  0  0  0  0  0  0
    1.8006    0.2265   -0.1244 C   0  0  0  0  0  0  0  0  0  0  0  0
   -2.2936   -1.1834    0.5892 C   0  0  0  0  0  0  0  0  0  0  0  0
   -0.7229    0.8245   -0.0423 C   0  0  0  0  0  0  0  0  0  0  0  0
   -0.5513   -2.9203    0.3739 C   0  0  0  0  0  0  0  0  0  0  0  0
    0.6682    1.1863   -0.6093 C   0  0  0  0  0  0  0  0  0  0  0  0
    3.2499    0.5293   -0.6770 C   0  0  0  0  0  0  0  0  0  0  0  0
   -2.0461   -2.7058    0.6898 C   0  0  0  0  0  0  0  0  0  0  0  0
    2.4619   -2.2114    0.3217 C   0  0  0  0  0  0  0  0  0  0  0  0
   -1.3465   -0.9551   -1.7546 C   0  0  0  0  0  0  0  0  0  0  0  0
    3.8618   -1.9308   -0.2101 C   0  0  0  0  0  0  0  0  0  0  0  0
    4.2067   -0.4753   -0.0253 C   0  0  0  0  0  0  0  0  0  0  0  0
   -3.6438   -0.8434    0.0339 C   0  0  0  0  0  0  0  0  0  0  0  0
    3.3800    0.3919   -2.2107 C   0  0  0  0  0  0  0  0  0  0  0  0
    3.6457    1.9607   -0.3443 C   0  0  0  0  0  0  0  0  0  0  0  0
    5.2716   -0.1218    0.7113 C   0  0  0  0  0  0  0  0  0  0  0  0
   -4.2597    0.4531    0.5155 C   0  0  0  0  0  0  0  0  0  0  0  0
    4.7035    2.3193    0.3898 C   0  0  0  0  0  0  0  0  0  0  0  0
    5.6010    1.2969    0.9579 C   0  0  0  0  0  0  0  0  0  0  0  0
   -6.1913    1.7957    0.2911 C   0  0  0  0  0  0  0  0  0  0  0  0
   -7.5172    1.8699   -0.4036 C   0  0  0  0  0  0  0  0  0  0  0  0
  1 11  1  0
  2 14  1  0
  3 21  2  0
  4 25  1  0
  4 28  1  0
  5 27  2  0
  6 28  2  0
  7  8  1  0
  7 11  1  0
  7 12  1  0
  7 18  1  0
  8  9  1  0
  8 13  1  0
  9 10  1  0
  9 17  1  0
 10 14  1  0
 10 15  1  0
 11 16  1  0
 11 21  1  0
 12 14  1  0
 13 16  1  0
 15 20  1  0
 15 22  1  0
 15 23  1  0
 17 19  1  0
 19 20  1  0
 20 24  2  0
 21 25  1  0
 23 26  2  0
 24 27  1  0
 26 27  1  0
 28 29  1  0
M  END
>  <PUBCHEM_COMPOUND_CID>  (1) 
5834

>  <PUBCHEM_CONFORMER_RMSD>  (1) 
0.8

>  <PUBCHEM_CONFORMER_DIVERSEORDER>  (1) 
1
2
14
6
12
5
13
7
8
11
3
4
9
10

>  <PUBCHEM_MMFF94_PARTIAL_CHARGES>  (1) 
24
1 -0.68
11 0.34
14 0.28
15 0.28
19 0.14
2 -0.68
20 -0.28
21 0.45
23 -0.29
24 -0.14
25 0.34
26 -0.14
27 0.54
28 0.66
29 0.06
3 -0.57
4 -0.43
5 -0.57
50 0.15
51 0.4
52 0.4
53 0.15
56 0.15
6 -0.57

>  <PUBCHEM_EFFECTIVE_ROTOR_COUNT>  (1) 
5.4

>  <PUBCHEM_PHARMACOPHORE_FEATURES>  (1) 
11
1 1 acceptor
1 1 donor
1 2 acceptor
1 2 donor
1 3 acceptor
1 5 acceptor
1 6 acceptor
5 7 8 11 13 16 rings
6 15 20 23 24 26 27 rings
6 7 8 9 10 12 14 rings
6 9 10 15 17 19 20 rings

>  <PUBCHEM_HEAVY_ATOM_COUNT>  (1) 
29

>  <PUBCHEM_ATOM_DEF_STEREO_COUNT>  (1) 
7

>  <PUBCHEM_ATOM_UDEF_STEREO_COUNT>  (1) 
0

>  <PUBCHEM_BOND_DEF_STEREO_COUNT>  (1) 
0

>  <PUBCHEM_BOND_UDEF_STEREO_COUNT>  (1) 
0

>  <PUBCHEM_ISOTOPIC_ATOM_COUNT>  (1) 
0

>  <PUBCHEM_COMPONENT_COUNT>  (1) 
1

>  <PUBCHEM_CACTVS_TAUTO_COUNT>  (1) 
6

>  <PUBCHEM_CONFORMER_ID>  (1) 
000016CA00000001

>  <PUBCHEM_MMFF94_ENERGY>  (1) 
91.7012

>  <PUBCHEM_FEATURE_SELFOVERLAP>  (1) 
55.923

>  <PUBCHEM_SHAPE_FINGERPRINT>  (1) 
10411042 1 17544193779209378978
10906281 52 17822865285548073230
11089746 13 18272367572647886965
11578080 2 17702644683460475985
11961588 58 14620509069410495000
12035758 1 17603304834767704373
12236239 1 18131064939653300935
12422481 6 17313387790614978813
12633257 1 16732984270722836978
13073987 5 18410012160965316899
13140716 1 18044091491817505826
13224815 77 18188493613694546702
13583140 156 17844811584155551090
13726171 33 16807891825292185516
13782708 43 13190340188405455409
14178342 30 18118124903686950858
14251764 30 11241969282806518697
14790565 3 18337677412835081265
14955137 171 11963397344982278095
15142383 8 16805317769312845933
15238133 3 18261681445223866700
15788980 27 16443614818190045070
15840311 113 18340209571145158917
1813 80 16443338811049600606
20157964 124 18272090457321353623
20511986 3 18272641355338170547
20715895 44 18410856551166120688
21033648 29 18260557731365641979
21298829 104 18410855460223536153
21304253 335 18335426763571432863
21403212 168 17603860088493276041
21421861 104 17677036968125211826
21452121 103 18410291411180298410
21774942 28 17703231702521725192
21859007 373 17532357678527910093
22182313 1 17677319511973792246
22950370 63 8718834192868353931
23559900 14 18270702942862449966
2838139 119 18341612552261454341
335352 9 18335988567038066190
3472631 163 18060136548225147381
34797466 226 17346887758008012775
34934 24 18413105082515059082
350125 39 18334580101511835742
3633792 109 18129946667565885611
3680242 22 17894904105988843986
3862424 121 12902649544305209768
4093350 32 17775006747698199766
4340502 62 18408886209107052693
465052 167 11241970369580710760
5104073 3 17313951964402158976
57527293 21 16009039426848336559
7970288 3 9078852761303443576

>  <PUBCHEM_SHAPE_MULTIPOLES>  (1) 
561.59
15.02
2.9
1.37
12.98
0.52
-0.41
-12.56
3.8
0.95
0.54
-0.73
-0.26
0.25

>  <PUBCHEM_SHAPE_SELFOVERLAP>  (1) 
1207.961

>  <PUBCHEM_SHAPE_VOLUME>  (1) 
305.3

>  <PUBCHEM_COORDINATE_TYPE>  (1) 
2
5
10

$$$$
