5837
     RDKit          3D

 18 19  0  0  1  0  0  0  0  0999 V2000
   -2.2277    1.5086    0.2881 Si  0  0  0  0  0  4  0  0  0  0  0  0
    1.2329   -1.2556    2.1637 O   0  0  0  0  0  0  0  0  0  0  0  0
    0.1165    0.0003   -2.2192 O   0  0  0  0  0  0  0  0  0  0  0  0
    3.9327    1.5546   -0.2460 O   0  0  0  0  0  0  0  0  0  0  0  0
    2.5320    0.2100    0.9827 N   0  0  0  0  0  0  0  0  0  0  0  0
    1.9386    0.8930   -1.1763 N   0  0  0  0  0  0  0  0  0  0  0  0
    0.2081   -0.1816    0.2210 C   0  0  0  0  0  0  0  0  0  0  0  0
   -0.7561   -1.4321    0.1697 C   0  0  0  0  0  0  0  0  0  0  0  0
   -0.4658    1.0782    0.8601 C   0  0  0  0  0  0  0  0  0  0  0  0
   -3.0293   -0.1920    0.1447 C   0  0  0  0  0  0  0  0  0  0  0  0
   -2.1260   -1.2258   -0.5301 C   0  0  0  0  0  0  0  0  0  0  0  0
   -0.0687   -2.6590   -0.4607 C   0  0  0  0  0  0  0  0  0  0  0  0
   -2.2242    2.3954   -1.3493 C   0  0  0  0  0  0  0  0  0  0  0  0
   -3.0914    2.5398    1.5830 C   0  0  0  0  0  0  0  0  0  0  0  0
    1.3597   -0.4977    1.2012 C   0  0  0  0  0  0  0  0  0  0  0  0
    0.7293    0.2132   -1.1744 C   0  0  0  0  0  0  0  0  0  0  0  0
   -0.9276   -3.8937   -0.3122 C   0  0  0  0  0  0  0  0  0  0  0  0
    2.8670    0.9444   -0.1461 C   0  0  0  0  0  0  0  0  0  0  0  0
  1  9  1  0
  1 10  1  0
  1 13  1  0
  1 14  1  0
  2 15  2  0
  3 16  2  0
  4 18  2  0
  5 15  1  0
  5 18  1  0
  6 16  1  0
  6 18  1  0
  7  8  1  0
  7  9  1  0
  7 15  1  0
  7 16  1  0
  8 11  1  0
  8 12  1  0
 10 11  1  0
 12 17  1  0
M  END
>  <PUBCHEM_COMPOUND_CID>  (1) 
5837

>  <PUBCHEM_CONFORMER_RMSD>  (1) 
0.6

>  <PUBCHEM_CONFORMER_DIVERSEORDER>  (1) 
1
8
10
6
2
3
9
5
4
7

>  <PUBCHEM_MMFF94_PARTIAL_CHARGES>  (1) 
16
1 0.32
10 -0.08
13 -0.08
14 -0.08
15 0.57
16 0.57
18 0.69
2 -0.57
3 -0.57
37 0.37
38 0.37
4 -0.57
5 -0.49
6 -0.49
7 0.12
9 -0.08

>  <PUBCHEM_EFFECTIVE_ROTOR_COUNT>  (1) 
2.4

>  <PUBCHEM_PHARMACOPHORE_FEATURES>  (1) 
8
1 17 hydrophobe
1 2 acceptor
1 3 acceptor
1 4 acceptor
1 5 donor
1 6 donor
6 1 7 8 9 10 11 rings
6 5 6 7 15 16 18 rings

>  <PUBCHEM_HEAVY_ATOM_COUNT>  (1) 
18

>  <PUBCHEM_ATOM_DEF_STEREO_COUNT>  (1) 
0

>  <PUBCHEM_ATOM_UDEF_STEREO_COUNT>  (1) 
1

>  <PUBCHEM_BOND_DEF_STEREO_COUNT>  (1) 
0

>  <PUBCHEM_BOND_UDEF_STEREO_COUNT>  (1) 
0

>  <PUBCHEM_ISOTOPIC_ATOM_COUNT>  (1) 
0

>  <PUBCHEM_COMPONENT_COUNT>  (1) 
1

>  <PUBCHEM_CACTVS_TAUTO_COUNT>  (1) 
5

>  <PUBCHEM_CONFORMER_ID>  (1) 
000016CD00000001

>  <PUBCHEM_MMFF94_ENERGY>  (1) 
46.6436

>  <PUBCHEM_FEATURE_SELFOVERLAP>  (1) 
40.639

>  <PUBCHEM_SHAPE_FINGERPRINT>  (1) 
10863032 1 18272378529151468756
10948715 1 18272099253108583081
11640471 11 18333454231137527157
12423570 1 17972311807506067633
12491281 212 18337118937836720944
13134695 92 17112696986934616349
13140716 1 18268435620356487563
13380537 58 18341626922414567524
13538477 17 18264192789668525986
13583140 156 17560229375606798674
14181834 199 17827070702290642047
14614273 12 18335984177818671397
14787075 74 16965754425945536848
14817 1 13716586330266578975
15775835 57 18333736797051813865
15852999 172 17832673835337233449
16945 1 18126018279954942596
18981168 100 18121507851836129813
19765921 60 17774165574211635969
20510252 161 18272375312479563481
20600515 1 17624995098207177311
20671657 1 17838070208204495361
21524375 3 18261120676908200696
22112679 90 17689736558816311079
23402539 116 18199747123546784279
23419403 2 12452580685016865855
23493267 7 18202570583391463728
23557571 272 17910404110199384196
2748010 2 18338806593775165239
305870 269 18339088064272123293
350125 39 18196946482805273347
458136 41 18125739897729342225
53812653 8 18409727395742522459
6442390 28 18056510338103493467
7364860 26 17908153079116136563
81228 2 18195253449214190667

>  <PUBCHEM_SHAPE_MULTIPOLES>  (1) 
361.07
4.59
3.32
1.62
0.44
3.48
-0.02
-4.12
0.7
-0.06
-0.34
-0.05
-0.39
-0.56

>  <PUBCHEM_SHAPE_SELFOVERLAP>  (1) 
725.054

>  <PUBCHEM_SHAPE_VOLUME>  (1) 
213.8

>  <PUBCHEM_COORDINATE_TYPE>  (1) 
2
5
10

$$$$
