5846
     RDKit          3D

 17 18  0  0  1  0  0  0  0  0999 V2000
   -2.3930    1.0205    0.3886 Si  0  0  0  0  0  4  0  0  0  0  0  0
    1.3044   -1.6200    1.9670 O   0  0  0  0  0  0  0  0  0  0  0  0
    0.0911    0.0527   -2.2476 O   0  0  0  0  0  0  0  0  0  0  0  0
    3.7379    1.7008   -0.0437 O   0  0  0  0  0  0  0  0  0  0  0  0
    2.4649    0.0925    0.9919 N   0  0  0  0  0  0  0  0  0  0  0  0
    1.8179    0.9761   -1.0770 N   0  0  0  0  0  0  0  0  0  0  0  0
    0.1906   -0.4163    0.1537 C   0  0  0  0  0  0  0  0  0  0  0  0
   -0.6522   -1.7350   -0.0633 C   0  0  0  0  0  0  0  0  0  0  0  0
   -0.6006    0.6883    0.9306 C   0  0  0  0  0  0  0  0  0  0  0  0
   -3.0314   -0.7166    0.0282 C   0  0  0  0  0  0  0  0  0  0  0  0
   -2.0328   -1.5724   -0.7533 C   0  0  0  0  0  0  0  0  0  0  0  0
   -2.4666    2.0970   -1.1290 C   0  0  0  0  0  0  0  0  0  0  0  0
   -3.3540    1.8017    1.7858 C   0  0  0  0  0  0  0  0  0  0  0  0
    1.3632   -0.7419    1.1055 C   0  0  0  0  0  0  0  0  0  0  0  0
    0.6775    0.1923   -1.1757 C   0  0  0  0  0  0  0  0  0  0  0  0
    0.1493   -2.8069   -0.8273 C   0  0  0  0  0  0  0  0  0  0  0  0
    2.7337    0.9870   -0.0344 C   0  0  0  0  0  0  0  0  0  0  0  0
  1  9  1  0
  1 10  1  0
  1 12  1  0
  1 13  1  0
  2 14  2  0
  3 15  2  0
  4 17  2  0
  5 14  1  0
  5 17  1  0
  6 15  1  0
  6 17  1  0
  7  8  1  0
  7  9  1  0
  7 14  1  0
  7 15  1  0
  8 11  1  0
  8 16  1  0
 10 11  1  0
M  END
>  <PUBCHEM_COMPOUND_CID>  (1) 
5846

>  <PUBCHEM_CONFORMER_RMSD>  (1) 
0.6

>  <PUBCHEM_CONFORMER_DIVERSEORDER>  (1) 
1
5
4
6
2
3
7

>  <PUBCHEM_MMFF94_PARTIAL_CHARGES>  (1) 
16
1 0.32
10 -0.08
12 -0.08
13 -0.08
14 0.57
15 0.57
17 0.69
2 -0.57
3 -0.57
34 0.37
35 0.37
4 -0.57
5 -0.49
6 -0.49
7 0.12
9 -0.08

>  <PUBCHEM_EFFECTIVE_ROTOR_COUNT>  (1) 
1.4

>  <PUBCHEM_PHARMACOPHORE_FEATURES>  (1) 
7
1 2 acceptor
1 3 acceptor
1 4 acceptor
1 5 donor
1 6 donor
6 1 7 8 9 10 11 rings
6 5 6 7 14 15 17 rings

>  <PUBCHEM_HEAVY_ATOM_COUNT>  (1) 
17

>  <PUBCHEM_ATOM_DEF_STEREO_COUNT>  (1) 
0

>  <PUBCHEM_ATOM_UDEF_STEREO_COUNT>  (1) 
1

>  <PUBCHEM_BOND_DEF_STEREO_COUNT>  (1) 
0

>  <PUBCHEM_BOND_UDEF_STEREO_COUNT>  (1) 
0

>  <PUBCHEM_ISOTOPIC_ATOM_COUNT>  (1) 
0

>  <PUBCHEM_COMPONENT_COUNT>  (1) 
1

>  <PUBCHEM_CACTVS_TAUTO_COUNT>  (1) 
5

>  <PUBCHEM_CONFORMER_ID>  (1) 
000016D600000001

>  <PUBCHEM_MMFF94_ENERGY>  (1) 
43.7704

>  <PUBCHEM_FEATURE_SELFOVERLAP>  (1) 
35.564

>  <PUBCHEM_SHAPE_FINGERPRINT>  (1) 
10863032 1 18130797741131700582
10948715 1 18202294588465858089
11471102 22 16298381400596788096
11640471 11 18408325488405370177
12138202 97 17775006816396486421
12423570 1 16596963678676810999
12491281 212 18339369659560691968
13538477 17 18267287910510887018
13764800 53 18060150812455122433
13839132 238 17988935443986414861
14181834 199 18045495318498923127
14614273 12 18410293606024520853
14817 1 12238585223704847895
15375462 478 17603588555922763381
15775835 57 18408046216709985233
15852999 172 17909236137109407851
16945 1 17676493860224176649
18186145 218 18272379624463432060
18981168 100 18196945374671906797
19786989 88 18267306430879456801
20510252 161 18130230479263086339
20511035 2 17316487197834856925
21524375 3 18335709381125657432
22802520 49 17059236764154292533
23236772 104 18188202238100566731
23402539 116 18057319707262830543
23419403 2 15761326819016314302
23493267 7 17989494021478486640
23557571 272 17841157958513594606
23559900 14 17775011146757579894
25 1 16056055553542984489
2748010 2 18127135173927412263
353137 74 18264200486355285353
53812653 8 18339920527766075107
6442390 28 17773063945776828171
7364860 26 17983590606199745887
77492 1 18260822752106311658
81228 2 18052261983465155275

>  <PUBCHEM_SHAPE_MULTIPOLES>  (1) 
340.49
4.83
2.45
1.67
0.13
1.09
-0.03
-3.31
0.86
0.21
-0.25
0
-0.14
-0.64

>  <PUBCHEM_SHAPE_SELFOVERLAP>  (1) 
685.485

>  <PUBCHEM_SHAPE_VOLUME>  (1) 
201.3

>  <PUBCHEM_COORDINATE_TYPE>  (1) 
2
5
10

$$$$
