585
     RDKit          3D

 14 14  0  0  0  0  0  0  0  0999 V2000
   -2.1573   -2.2570   -0.3955 O   0  0  0  0  0  0  0  0  0  0  0  0
    2.6765   -1.5307    0.5256 O   0  0  0  0  0  0  0  0  0  0  0  0
    4.7815   -0.1667   -0.0228 O   0  0  0  0  0  0  0  0  0  0  0  0
    3.5097    1.6508   -0.5747 O   0  0  0  0  0  0  0  0  0  0  0  0
   -1.3634   -0.0557    0.1515 C   0  0  0  0  0  0  0  0  0  0  0  0
   -2.3972   -0.9323   -0.1775 C   0  0  0  0  0  0  0  0  0  0  0  0
   -1.6368    1.2947    0.3692 C   0  0  0  0  0  0  0  0  0  0  0  0
    0.0099   -0.5257    0.2742 C   0  0  0  0  0  0  0  0  0  0  0  0
   -3.7044   -0.4586   -0.2888 C   0  0  0  0  0  0  0  0  0  0  0  0
   -2.9440    1.7684    0.2578 C   0  0  0  0  0  0  0  0  0  0  0  0
   -3.9778    0.8918   -0.0713 C   0  0  0  0  0  0  0  0  0  0  0  0
    1.1105    0.2064   -0.0017 C   0  0  0  0  0  0  0  0  0  0  0  0
    2.4611   -0.3884    0.1519 C   0  0  0  0  0  0  0  0  0  0  0  0
    3.6317    0.5029   -0.1977 C   0  0  0  0  0  0  0  0  0  0  0  0
  1  6  1  0
  2 13  2  0
  3 14  1  0
  4 14  2  0
  5  6  2  0
  5  7  1  0
  5  8  1  0
  6  9  1  0
  7 10  2  0
  8 12  2  0
  9 11  2  0
 10 11  1  0
 12 13  1  0
 13 14  1  0
M  END
>  <PUBCHEM_COMPOUND_CID>  (1) 
585

>  <PUBCHEM_CONFORMER_RMSD>  (1) 
0.6

>  <PUBCHEM_CONFORMER_DIVERSEORDER>  (1) 
1
4
5
8
2
6
7
3

>  <PUBCHEM_MMFF94_PARTIAL_CHARGES>  (1) 
22
1 -0.53
10 -0.15
11 -0.15
12 -0.14
13 0.56
14 0.72
15 0.15
16 0.15
17 0.15
18 0.15
19 0.15
2 -0.57
20 0.15
21 0.45
22 0.5
3 -0.65
4 -0.57
5 0.03
6 0.08
7 -0.15
8 -0.18
9 -0.15

>  <PUBCHEM_EFFECTIVE_ROTOR_COUNT>  (1) 
3

>  <PUBCHEM_PHARMACOPHORE_FEATURES>  (1) 
6
1 1 donor
1 2 acceptor
1 3 acceptor
1 4 acceptor
3 3 4 14 anion
6 5 6 7 9 10 11 rings

>  <PUBCHEM_HEAVY_ATOM_COUNT>  (1) 
14

>  <PUBCHEM_ATOM_DEF_STEREO_COUNT>  (1) 
0

>  <PUBCHEM_ATOM_UDEF_STEREO_COUNT>  (1) 
0

>  <PUBCHEM_BOND_DEF_STEREO_COUNT>  (1) 
0

>  <PUBCHEM_BOND_UDEF_STEREO_COUNT>  (1) 
1

>  <PUBCHEM_ISOTOPIC_ATOM_COUNT>  (1) 
0

>  <PUBCHEM_COMPONENT_COUNT>  (1) 
1

>  <PUBCHEM_CACTVS_TAUTO_COUNT>  (1) 
5

>  <PUBCHEM_CONFORMER_ID>  (1) 
0000024900000001

>  <PUBCHEM_MMFF94_ENERGY>  (1) 
34.5622

>  <PUBCHEM_FEATURE_SELFOVERLAP>  (1) 
30.514

>  <PUBCHEM_SHAPE_FINGERPRINT>  (1) 
10014705 185 18187078456045416669
10616163 171 18341332270515817662
12162725 195 18408042914011782348
12173636 292 18341887455510765501
12500047 106 18342450430906793295
12932764 1 17561073730873474058
14144814 61 18409729530235676041
14325111 11 18410293579706019289
14415576 193 18409172121259636516
14897335 6 18409166588835350386
15442244 35 18193274088071844002
15669948 3 18343575270146858367
15775835 57 18335423434876852033
17802600 8 18409162212585903308
17834072 32 18192993708391714125
18186145 218 17894910707116057618
19050596 39 18407758149095248480
200 152 18341890809505410742
20279233 1 16343702132017518934
20300324 65 18272650173196043069
20645477 56 18412829062294481465
20645477 70 18338515227394352518
20871999 31 18341037602163763351
21267235 1 18410020935097900490
23402539 116 18272362071401273709
23402655 69 18408605851243838732
23557571 272 18059864960432164900
23559900 14 18201718410662122010
3545911 37 18411983542237106416
4175511 318 17917990585806902429
4214541 1 18410855438663881332
474 4 17604436326727631108
5104073 3 18409729560305735688
57096353 35 18410290358475318415
573450 72 18337378375389048482
58051976 100 18409168805239175774
58051976 378 18343864411682280166
77779 3 18410576180132985966
93112 12 18412263934750183212
9709674 26 18341619200106236534

>  <PUBCHEM_SHAPE_MULTIPOLES>  (1) 
264.64
8.53
1.73
0.67
5.93
0.18
-0.01
-1.41
0.73
-0.82
0.07
0.01
-0.02
-0.66

>  <PUBCHEM_SHAPE_SELFOVERLAP>  (1) 
555.269

>  <PUBCHEM_SHAPE_VOLUME>  (1) 
148.2

>  <PUBCHEM_COORDINATE_TYPE>  (1) 
2
5
10

$$$$
