5859
     RDKit          3D

 19 19  0  0  0  0  0  0  0  0999 V2000
   -3.5722   -0.2252   -0.6061 S   0  0  0  0  0  0  0  0  0  0  0  0
    3.0447   -0.4883    2.2069 S   0  0  0  0  0  0  0  0  0  0  0  0
    3.3489   -0.1039    0.3192 P   0  0  0  0  0  0  0  0  0  0  0  0
    2.2332    0.7979   -0.4362 O   0  0  0  0  0  0  0  0  0  0  0  0
   -4.2117    0.8907   -1.2947 O   0  0  0  0  0  0  0  0  0  0  0  0
   -3.7829   -1.5732   -1.1225 O   0  0  0  0  0  0  0  0  0  0  0  0
    4.7072    0.7249   -0.0279 O   0  0  0  0  0  0  0  0  0  0  0  0
    3.4967   -1.3741   -0.6868 O   0  0  0  0  0  0  0  0  0  0  0  0
   -4.0333   -0.1885    1.0611 N   0  0  0  0  0  0  0  0  0  0  0  0
   -1.8531    0.0772   -0.5573 C   0  0  0  0  0  0  0  0  0  0  0  0
   -0.9595   -0.9889   -0.4547 C   0  0  0  0  0  0  0  0  0  0  0  0
   -1.3734    1.3857   -0.6192 C   0  0  0  0  0  0  0  0  0  0  0  0
    0.8857    0.5604   -0.4764 C   0  0  0  0  0  0  0  0  0  0  0  0
    0.4136   -0.7466   -0.4139 C   0  0  0  0  0  0  0  0  0  0  0  0
   -0.0003    1.6279   -0.5787 C   0  0  0  0  0  0  0  0  0  0  0  0
   -3.3970   -1.1742    1.9716 C   0  0  0  0  0  0  0  0  0  0  0  0
   -4.1850    1.1425    1.7019 C   0  0  0  0  0  0  0  0  0  0  0  0
    4.8361    2.0743    0.3875 C   0  0  0  0  0  0  0  0  0  0  0  0
    4.4024   -2.4186   -0.3739 C   0  0  0  0  0  0  0  0  0  0  0  0
  1  5  2  0
  1  6  2  0
  1  9  1  0
  1 10  1  0
  2  3  2  0
  3  4  1  0
  3  7  1  0
  3  8  1  0
  4 13  1  0
  7 18  1  0
  8 19  1  0
  9 16  1  0
  9 17  1  0
 10 11  2  0
 10 12  1  0
 11 14  1  0
 12 15  2  0
 13 14  2  0
 13 15  1  0
M  END
>  <PUBCHEM_COMPOUND_CID>  (1) 
5859

>  <PUBCHEM_CONFORMER_RMSD>  (1) 
0.8

>  <PUBCHEM_CONFORMER_DIVERSEORDER>  (1) 
1
22
19
15
28
17
24
16
7
11
21
4
6
8
25
18
5
9
3
13
14
27
10
26
20
2
23
12

>  <PUBCHEM_MMFF94_PARTIAL_CHARGES>  (1) 
23
1 1.45
10 -0.01
11 -0.15
12 -0.15
13 0.08
14 -0.15
15 -0.15
16 0.36
17 0.36
18 0.28
19 0.28
2 -0.68
20 0.15
21 0.15
22 0.15
23 0.15
3 1.49
4 -0.35
5 -0.65
6 -0.65
7 -0.55
8 -0.55
9 -0.85

>  <PUBCHEM_EFFECTIVE_ROTOR_COUNT>  (1) 
6

>  <PUBCHEM_PHARMACOPHORE_FEATURES>  (1) 
3
1 5 acceptor
1 6 acceptor
6 10 11 12 13 14 15 rings

>  <PUBCHEM_HEAVY_ATOM_COUNT>  (1) 
19

>  <PUBCHEM_ATOM_DEF_STEREO_COUNT>  (1) 
0

>  <PUBCHEM_ATOM_UDEF_STEREO_COUNT>  (1) 
0

>  <PUBCHEM_BOND_DEF_STEREO_COUNT>  (1) 
0

>  <PUBCHEM_BOND_UDEF_STEREO_COUNT>  (1) 
0

>  <PUBCHEM_ISOTOPIC_ATOM_COUNT>  (1) 
0

>  <PUBCHEM_COMPONENT_COUNT>  (1) 
1

>  <PUBCHEM_CACTVS_TAUTO_COUNT>  (1) 
1

>  <PUBCHEM_CONFORMER_ID>  (1) 
000016E300000001

>  <PUBCHEM_MMFF94_ENERGY>  (1) 
31.7303

>  <PUBCHEM_FEATURE_SELFOVERLAP>  (1) 
15.242

>  <PUBCHEM_SHAPE_FINGERPRINT>  (1) 
10366900 7 16774075202180653975
10912923 1 17632576058675455446
11132069 177 18341039757630749255
11552529 35 17630600335170630743
12107183 9 17699018292190494482
12596602 18 18410300237216643249
12633257 1 16343431613296866995
12670546 177 12252196181081987643
12670546 56 16917057846056333331
13533116 47 17418371364164225791
13583140 156 16950830500949371319
13675066 3 18187083961818729396
13760787 19 16298670490693036803
13955234 65 18342735222558378642
14252887 29 18333733529029555176
14289901 80 18201997729053430368
15209294 21 17775292634002059521
15375358 24 18040991882233115098
1813 80 17749116590274823948
19078846 21 16128374844555108610
20281475 54 18273209807207832798
20645477 70 18338505370623438374
23557571 272 17676757683439520844
23559900 14 18340197506413011606
239999 70 17967535675477505770
2838139 119 16485563201477983129
3286 77 17131537384674477294
5104073 3 18413106152062110730
633830 44 18187077326046907750
90127 26 18187363194764593108
9709674 26 18333447651463602390

>  <PUBCHEM_SHAPE_MULTIPOLES>  (1) 
368.23
10.76
1.95
1.63
2.76
0.11
-1.07
0.44
-1.94
1.7
0.16
-1.05
0.36
0.51

>  <PUBCHEM_SHAPE_SELFOVERLAP>  (1) 
700.188

>  <PUBCHEM_SHAPE_VOLUME>  (1) 
229.8

>  <PUBCHEM_COORDINATE_TYPE>  (1) 
2
5
10

$$$$
