5864
     RDKit          3D

 26 29  0  0  1  0  0  0  0  0999 V2000
   -0.1128   -1.7623   -1.9607 O   0  0  0  0  0  0  0  0  0  0  0  0
    2.8158    0.0867    2.0158 O   0  0  0  0  0  0  0  0  0  0  0  0
   -4.8629   -0.6896    2.7393 O   0  0  0  0  0  0  0  0  0  0  0  0
    5.2569    0.5537   -0.0675 O   0  0  0  0  0  0  0  0  0  0  0  0
    5.6841   -2.0887    0.5927 O   0  0  0  0  0  0  0  0  0  0  0  0
   -1.2321   -0.2633   -0.2988 C   0  0  0  0  0  0  0  0  0  0  0  0
   -0.5556    1.1218   -0.5689 C   0  0  0  0  0  0  0  0  0  0  0  0
    0.7816    1.1722    0.1868 C   0  0  0  0  0  0  0  0  0  0  0  0
    1.7754    0.0684   -0.2387 C   0  0  0  0  0  0  0  0  0  0  0  0
   -2.6698   -0.3585   -0.9513 C   0  0  0  0  0  0  0  0  0  0  0  0
   -3.5431    0.8433   -0.4523 C   0  0  0  0  0  0  0  0  0  0  0  0
   -0.2714   -1.4587   -0.5842 C   0  0  0  0  0  0  0  0  0  0  0  0
    1.1178   -1.2916    0.0718 C   0  0  0  0  0  0  0  0  0  0  0  0
    2.9864    0.4606    0.6517 C   0  0  0  0  0  0  0  0  0  0  0  0
   -1.4598    2.2858   -0.1331 C   0  0  0  0  0  0  0  0  0  0  0  0
    1.6186    2.4471    0.1210 C   0  0  0  0  0  0  0  0  0  0  0  0
   -2.8640    2.1954   -0.7182 C   0  0  0  0  0  0  0  0  0  0  0  0
    3.0207    2.0047    0.5883 C   0  0  0  0  0  0  0  0  0  0  0  0
   -3.3972   -1.6822   -0.5758 C   0  0  0  0  0  0  0  0  0  0  0  0
   -3.9442    0.7190    1.0320 C   0  0  0  0  0  0  0  0  0  0  0  0
    2.2019    0.1605   -1.7302 C   0  0  0  0  0  0  0  0  0  0  0  0
   -2.6316   -0.3146   -2.5014 C   0  0  0  0  0  0  0  0  0  0  0  0
   -3.7651   -1.7905    0.8991 C   0  0  0  0  0  0  0  0  0  0  0  0
   -4.6244   -0.6122    1.3378 C   0  0  0  0  0  0  0  0  0  0  0  0
    4.3003   -0.1476    0.2583 C   0  0  0  0  0  0  0  0  0  0  0  0
    4.3745   -1.6594    0.2864 C   0  0  0  0  0  0  0  0  0  0  0  0
  1 12  1  0
  2 14  1  0
  3 24  1  0
  4 25  2  0
  5 26  1  0
  6  7  1  0
  6 10  1  0
  6 12  1  0
  7  8  1  0
  7 15  1  0
  8  9  1  0
  8 16  1  0
  9 13  1  0
  9 14  1  0
  9 21  1  0
 10 11  1  0
 10 19  1  0
 10 22  1  0
 11 17  1  0
 11 20  1  0
 12 13  1  0
 14 18  1  0
 14 25  1  0
 15 17  1  0
 16 18  1  0
 19 23  1  0
 20 24  1  0
 23 24  1  0
 25 26  1  0
M  END
>  <PUBCHEM_COMPOUND_CID>  (1) 
5864

>  <PUBCHEM_CONFORMER_RMSD>  (1) 
0.8

>  <PUBCHEM_CONFORMER_DIVERSEORDER>  (1) 
1
2

>  <PUBCHEM_MMFF94_PARTIAL_CHARGES>  (1) 
14
1 -0.68
12 0.28
14 0.34
2 -0.68
24 0.28
25 0.45
26 0.34
3 -0.68
4 -0.57
5 -0.68
55 0.4
56 0.4
59 0.4
60 0.4

>  <PUBCHEM_EFFECTIVE_ROTOR_COUNT>  (1) 
4.2

>  <PUBCHEM_PHARMACOPHORE_FEATURES>  (1) 
13
1 1 acceptor
1 1 donor
1 2 acceptor
1 2 donor
1 3 acceptor
1 3 donor
1 4 acceptor
1 5 acceptor
1 5 donor
5 8 9 14 16 18 rings
6 10 11 19 20 23 24 rings
6 6 7 10 11 15 17 rings
6 6 7 8 9 12 13 rings

>  <PUBCHEM_HEAVY_ATOM_COUNT>  (1) 
26

>  <PUBCHEM_ATOM_DEF_STEREO_COUNT>  (1) 
9

>  <PUBCHEM_ATOM_UDEF_STEREO_COUNT>  (1) 
0

>  <PUBCHEM_BOND_DEF_STEREO_COUNT>  (1) 
0

>  <PUBCHEM_BOND_UDEF_STEREO_COUNT>  (1) 
0

>  <PUBCHEM_ISOTOPIC_ATOM_COUNT>  (1) 
0

>  <PUBCHEM_COMPONENT_COUNT>  (1) 
1

>  <PUBCHEM_CACTVS_TAUTO_COUNT>  (1) 
3

>  <PUBCHEM_CONFORMER_ID>  (1) 
000016E800000001

>  <PUBCHEM_MMFF94_ENERGY>  (1) 
92.3928

>  <PUBCHEM_FEATURE_SELFOVERLAP>  (1) 
66.105

>  <PUBCHEM_SHAPE_FINGERPRINT>  (1) 
11135609 12 18115318773380695738
11552529 35 17841713207802371611
12236239 1 17749391438924111380
12403259 226 18339912809546573693
12422481 6 18129953268862073739
12633257 1 17418373605688449280
12670546 177 11169911701484804835
12714826 92 17168135772035398613
13009979 54 17968388857366316236
13140716 1 18342738520376220217
13224815 77 18334853956789535637
13544653 18 17749671917283650003
13583140 156 17532068618512087117
13675066 3 18412537713245791184
14223421 5 18409169879228711605
14341114 176 18333736809788470600
14790565 3 17616820276320650004
14950920 106 18199483202185938915
14955137 171 18342187643654813848
15196674 1 18411973651069978572
15209289 33 18260829306178971698
15209294 21 17203612588130969043
15463212 79 12535339078520159925
15788980 27 18408599245230534222
16945 1 18410564102563663133
17349148 13 17561072644399534446
18186145 218 17775850124677416788
18927931 339 18409449146117673598
19591789 44 18411131437958463158
20261772 1 18343584070476507209
20739085 24 18338811124818437061
20775438 99 12472895846611410137
20775530 9 15359687741456696433
221490 88 18408319999706093848
22182313 1 17986400987842525924
23402539 116 17988063522886644348
23557571 272 17312812767540156517
23559900 14 17821726160962601189
2748010 2 18200026214336532844
296302 2 11455892463981939414
312423 11 17603881017188570645
335352 9 18340760429932257436
460360 51 17984716514891611062
5104073 3 18059849606082201450

>  <PUBCHEM_SHAPE_MULTIPOLES>  (1) 
505.72
10.16
2.36
1.73
4.66
0.54
0
-3.4
4.25
0.33
-0.02
-1.8
-0.47
0.42

>  <PUBCHEM_SHAPE_SELFOVERLAP>  (1) 
1075.813

>  <PUBCHEM_SHAPE_VOLUME>  (1) 
277.5

>  <PUBCHEM_COORDINATE_TYPE>  (1) 
2
5
10

$$$$
