5866
     RDKit          3D

 26 29  0  0  1  0  0  0  0  0999 V2000
    2.8888    0.1371    1.9949 O   0  0  0  0  0  0  0  0  0  0  0  0
   -0.4689   -2.3405   -1.2893 O   0  0  0  0  0  0  0  0  0  0  0  0
   -5.0039   -0.6085    2.6352 O   0  0  0  0  0  0  0  0  0  0  0  0
    5.2725    0.5461   -0.1722 O   0  0  0  0  0  0  0  0  0  0  0  0
    5.7103   -2.0809    0.5405 O   0  0  0  0  0  0  0  0  0  0  0  0
   -0.5351    1.1429   -0.5399 C   0  0  0  0  0  0  0  0  0  0  0  0
    0.8048    1.1907    0.2130 C   0  0  0  0  0  0  0  0  0  0  0  0
    1.7879    0.0742   -0.2199 C   0  0  0  0  0  0  0  0  0  0  0  0
   -1.2194   -0.2347   -0.2751 C   0  0  0  0  0  0  0  0  0  0  0  0
   -2.6257   -0.3483   -0.9636 C   0  0  0  0  0  0  0  0  0  0  0  0
   -3.5149    0.8682   -0.5226 C   0  0  0  0  0  0  0  0  0  0  0  0
    3.0260    0.4809    0.6195 C   0  0  0  0  0  0  0  0  0  0  0  0
   -1.4421    2.3093   -0.1283 C   0  0  0  0  0  0  0  0  0  0  0  0
    1.6434    2.4627    0.1149 C   0  0  0  0  0  0  0  0  0  0  0  0
    1.1385   -1.2729    0.1149 C   0  0  0  0  0  0  0  0  0  0  0  0
   -2.8230    2.2188   -0.7689 C   0  0  0  0  0  0  0  0  0  0  0  0
   -0.2148   -1.3696   -0.5799 C   0  0  0  0  0  0  0  0  0  0  0  0
    3.0641    2.0209    0.5165 C   0  0  0  0  0  0  0  0  0  0  0  0
   -3.3777   -1.6596   -0.5837 C   0  0  0  0  0  0  0  0  0  0  0  0
   -3.9770    0.7730    0.9472 C   0  0  0  0  0  0  0  0  0  0  0  0
    2.1288    0.1075   -1.7365 C   0  0  0  0  0  0  0  0  0  0  0  0
   -2.4952   -0.3390   -2.5094 C   0  0  0  0  0  0  0  0  0  0  0  0
   -3.8063   -1.7365    0.8765 C   0  0  0  0  0  0  0  0  0  0  0  0
   -4.6784   -0.5461    1.2505 C   0  0  0  0  0  0  0  0  0  0  0  0
    4.3238   -0.1424    0.2009 C   0  0  0  0  0  0  0  0  0  0  0  0
    4.3932   -1.6535    0.2645 C   0  0  0  0  0  0  0  0  0  0  0  0
  1 12  1  0
  2 17  2  0
  3 24  1  0
  4 25  2  0
  5 26  1  0
  6  7  1  0
  6  9  1  0
  6 13  1  0
  7  8  1  0
  7 14  1  0
  8 12  1  0
  8 15  1  0
  8 21  1  0
  9 10  1  0
  9 17  1  0
 10 11  1  0
 10 19  1  0
 10 22  1  0
 11 16  1  0
 11 20  1  0
 12 18  1  0
 12 25  1  0
 13 16  1  0
 14 18  1  0
 15 17  1  0
 19 23  1  0
 20 24  1  0
 23 24  1  0
 25 26  1  0
M  END
>  <PUBCHEM_COMPOUND_CID>  (1) 
5866

>  <PUBCHEM_CONFORMER_RMSD>  (1) 
0.8

>  <PUBCHEM_CONFORMER_DIVERSEORDER>  (1) 
1
4
2
3

>  <PUBCHEM_MMFF94_PARTIAL_CHARGES>  (1) 
15
1 -0.68
12 0.34
15 0.06
17 0.45
2 -0.57
24 0.28
25 0.45
26 0.34
3 -0.68
4 -0.57
5 -0.68
54 0.4
57 0.4
58 0.4
9 0.06

>  <PUBCHEM_EFFECTIVE_ROTOR_COUNT>  (1) 
4

>  <PUBCHEM_PHARMACOPHORE_FEATURES>  (1) 
12
1 1 acceptor
1 1 donor
1 2 acceptor
1 3 acceptor
1 3 donor
1 4 acceptor
1 5 acceptor
1 5 donor
5 7 8 12 14 18 rings
6 10 11 19 20 23 24 rings
6 6 7 8 9 15 17 rings
6 6 9 10 11 13 16 rings

>  <PUBCHEM_HEAVY_ATOM_COUNT>  (1) 
26

>  <PUBCHEM_ATOM_DEF_STEREO_COUNT>  (1) 
8

>  <PUBCHEM_ATOM_UDEF_STEREO_COUNT>  (1) 
0

>  <PUBCHEM_BOND_DEF_STEREO_COUNT>  (1) 
0

>  <PUBCHEM_BOND_UDEF_STEREO_COUNT>  (1) 
0

>  <PUBCHEM_ISOTOPIC_ATOM_COUNT>  (1) 
0

>  <PUBCHEM_COMPONENT_COUNT>  (1) 
1

>  <PUBCHEM_CACTVS_TAUTO_COUNT>  (1) 
9

>  <PUBCHEM_CONFORMER_ID>  (1) 
000016EA00000001

>  <PUBCHEM_MMFF94_ENERGY>  (1) 
84.2332

>  <PUBCHEM_FEATURE_SELFOVERLAP>  (1) 
61.032

>  <PUBCHEM_SHAPE_FINGERPRINT>  (1) 
11135609 12 18187939313077051674
11552529 35 17841994678499887215
12236239 1 17749111063422072788
12403259 226 18339912809541285973
12422481 6 18201166438022623723
12553582 1 18411408540558285108
12633257 1 17632577166729635936
12670546 177 11025796517740813563
12714826 92 17240474836733977453
12788726 201 17703802383832984824
13140716 1 18341895199315915361
13224815 77 18261106413369146965
13583140 156 17386826430980876525
13675066 3 18341606019072520888
14223421 5 18408887296182100069
14341114 176 18333736809793758336
14955137 171 18339653260704846288
15196674 1 18411692180372391484
15209289 33 18260266356183358866
15209294 21 17489873743357789875
15788980 27 18408317770237979830
16945 1 18341316894521679540
17349148 13 17632572781842170998
1813 80 17531247291815872652
18186145 218 17917712409148823012
18769570 83 14404904648165614931
18927931 339 18409730621083821790
19591789 44 18411412912877125582
20261772 1 18342177799446982849
20739085 24 18337967795136607573
20775438 99 12256726363095839201
20775530 9 15070616234609604433
21033648 29 17988061327731400336
221490 88 18408601470382562440
22182313 1 18128543652000161814
23402539 116 18058996316513500708
23557571 272 17240754073985332565
23559900 14 18334846230038134876
2748010 2 18198617735646338973
2838139 119 13613137473920123563
296302 2 11384116349247337950
312423 11 17604162492165313797
335352 9 18340760434258834284
350125 39 18411983563380042837
460360 51 17983872085640144566
465052 167 18261406584544238659
5104073 3 18059850714131061762

>  <PUBCHEM_SHAPE_MULTIPOLES>  (1) 
505.72
10.24
2.42
1.63
4.59
0.42
0.04
-3.27
4.1
0.33
-0.09
-1.72
-0.35
0.37

>  <PUBCHEM_SHAPE_SELFOVERLAP>  (1) 
1081.748

>  <PUBCHEM_SHAPE_VOLUME>  (1) 
277.5

>  <PUBCHEM_COORDINATE_TYPE>  (1) 
2
5
10

$$$$
