5867
     RDKit          3D

 26 29  0  0  1  0  0  0  0  0999 V2000
    2.9859    0.2360    1.9879 O   0  0  0  0  0  0  0  0  0  0  0  0
   -0.3954   -2.4000   -1.1539 O   0  0  0  0  0  0  0  0  0  0  0  0
    5.3322    0.5665   -0.2330 O   0  0  0  0  0  0  0  0  0  0  0  0
   -5.4195   -0.2167    2.3452 O   0  0  0  0  0  0  0  0  0  0  0  0
    5.8075   -2.0202    0.5939 O   0  0  0  0  0  0  0  0  0  0  0  0
    0.8650    1.1877    0.1926 C   0  0  0  0  0  0  0  0  0  0  0  0
    1.8521    0.0600   -0.2040 C   0  0  0  0  0  0  0  0  0  0  0  0
   -0.4869    1.0895   -0.5324 C   0  0  0  0  0  0  0  0  0  0  0  0
   -1.1538   -0.2827   -0.1737 C   0  0  0  0  0  0  0  0  0  0  0  0
    3.0989    0.5170    0.5961 C   0  0  0  0  0  0  0  0  0  0  0  0
   -2.5802   -0.4449   -0.8049 C   0  0  0  0  0  0  0  0  0  0  0  0
    1.6891    2.4607    0.0196 C   0  0  0  0  0  0  0  0  0  0  0  0
    1.2217   -1.2777    0.2009 C   0  0  0  0  0  0  0  0  0  0  0  0
    3.1197    2.0512    0.4211 C   0  0  0  0  0  0  0  0  0  0  0  0
   -1.4019    2.2736   -0.1761 C   0  0  0  0  0  0  0  0  0  0  0  0
   -0.1428   -1.4133   -0.4658 C   0  0  0  0  0  0  0  0  0  0  0  0
   -3.3791    0.8007   -0.3827 C   0  0  0  0  0  0  0  0  0  0  0  0
    2.1702    0.0271   -1.7258 C   0  0  0  0  0  0  0  0  0  0  0  0
   -2.7939    2.1295   -0.7874 C   0  0  0  0  0  0  0  0  0  0  0  0
   -3.2977   -1.7458   -0.3215 C   0  0  0  0  0  0  0  0  0  0  0  0
   -2.5254   -0.5192   -2.3511 C   0  0  0  0  0  0  0  0  0  0  0  0
    4.3963   -0.1128    0.1865 C   0  0  0  0  0  0  0  0  0  0  0  0
   -3.9579   -1.6037    1.0431 C   0  0  0  0  0  0  0  0  0  0  0  0
   -4.4759    0.7557    0.3962 C   0  0  0  0  0  0  0  0  0  0  0  0
   -5.0104   -0.4997    1.0100 C   0  0  0  0  0  0  0  0  0  0  0  0
    4.4821   -1.6185    0.3191 C   0  0  0  0  0  0  0  0  0  0  0  0
  1 10  1  0
  2 16  2  0
  3 22  2  0
  4 25  1  0
  5 26  1  0
  6  7  1  0
  6  8  1  0
  6 12  1  0
  7 10  1  0
  7 13  1  0
  7 18  1  0
  8  9  1  0
  8 15  1  0
  9 11  1  0
  9 16  1  0
 10 14  1  0
 10 22  1  0
 11 17  1  0
 11 20  1  0
 11 21  1  0
 12 14  1  0
 13 16  1  0
 15 19  1  0
 17 19  1  0
 17 24  2  0
 20 23  1  0
 22 26  1  0
 23 25  1  0
 24 25  1  0
M  END
>  <PUBCHEM_COMPOUND_CID>  (1) 
5867

>  <PUBCHEM_CONFORMER_RMSD>  (1) 
0.8

>  <PUBCHEM_CONFORMER_DIVERSEORDER>  (1) 
1
3
2

>  <PUBCHEM_MMFF94_PARTIAL_CHARGES>  (1) 
20
1 -0.68
10 0.34
11 0.14
13 0.06
16 0.45
17 -0.28
19 0.14
2 -0.57
22 0.45
24 -0.29
25 0.42
26 0.34
3 -0.57
4 -0.68
5 -0.68
50 0.15
51 0.4
55 0.4
56 0.4
9 0.06

>  <PUBCHEM_EFFECTIVE_ROTOR_COUNT>  (1) 
3.8

>  <PUBCHEM_PHARMACOPHORE_FEATURES>  (1) 
12
1 1 acceptor
1 1 donor
1 2 acceptor
1 3 acceptor
1 4 acceptor
1 4 donor
1 5 acceptor
1 5 donor
5 6 7 10 12 14 rings
6 11 17 20 23 24 25 rings
6 6 7 8 9 13 16 rings
6 8 9 11 15 17 19 rings

>  <PUBCHEM_HEAVY_ATOM_COUNT>  (1) 
26

>  <PUBCHEM_ATOM_DEF_STEREO_COUNT>  (1) 
7

>  <PUBCHEM_ATOM_UDEF_STEREO_COUNT>  (1) 
0

>  <PUBCHEM_BOND_DEF_STEREO_COUNT>  (1) 
0

>  <PUBCHEM_BOND_UDEF_STEREO_COUNT>  (1) 
0

>  <PUBCHEM_ISOTOPIC_ATOM_COUNT>  (1) 
0

>  <PUBCHEM_COMPONENT_COUNT>  (1) 
1

>  <PUBCHEM_CACTVS_TAUTO_COUNT>  (1) 
9

>  <PUBCHEM_CONFORMER_ID>  (1) 
000016EB00000001

>  <PUBCHEM_MMFF94_ENERGY>  (1) 
77.4814

>  <PUBCHEM_FEATURE_SELFOVERLAP>  (1) 
61.015

>  <PUBCHEM_SHAPE_FINGERPRINT>  (1) 
11045977 3 18113618993350792435
11405975 8 17418086650465292178
11552529 35 17913490417885417947
12236239 1 17676209048527479588
12403259 226 18338507629417714924
12403259 415 18271801328729187664
12422481 6 18271813375927440227
12553582 1 18337096938903584192
12596602 18 17385446522618948324
12633257 1 17632577171008772416
12788726 201 17632031804984368728
13009979 54 17895485734533632532
13140716 1 18341053020790523905
13224815 77 18261105313857499733
13583140 156 17314485167274814501
13675066 3 18343013406677517216
14178342 30 18197788695453046033
14223421 5 18336266743648308549
14341114 176 18333455334838146672
14790565 3 18340495568147873780
14955137 171 18411426093973624824
15196674 1 18411132558649502316
15209289 33 18187363242061909499
15209294 21 17632863040211663779
15375358 24 10087644805604693420
15788980 27 18408036308024858215
16945 1 18268974540141921996
17349148 13 17775564256170610796
1813 80 17385722521296046892
18769570 83 14764349301711216907
19591789 44 18410569595974689934
20261772 1 18341612650480829433
20739085 24 18337122262189367773
20775438 99 11967368974683005041
21033648 29 17988061327741930344
21267235 1 18408889520468646686
21682296 61 18200315386132488766
221490 88 18408038529003257960
22182313 1 18127977407806804975
23402539 116 18131057230476680940
23557571 272 17023176107489816741
23559900 14 18334005107858738708
2748010 2 18198053690476224684
2838139 119 14260247345950612089
296302 2 11527950062235687407
335352 9 18339918221194577252
350125 39 18410578379077516596
4340502 62 14548742828330973597
465052 167 18261122901864589091
5104073 3 18130783520510990178

>  <PUBCHEM_SHAPE_MULTIPOLES>  (1) 
505.72
10.82
2.39
1.48
2.9
0.38
-0.05
-3.02
4.31
0.48
-0.11
-1.25
-0.28
0.25

>  <PUBCHEM_SHAPE_SELFOVERLAP>  (1) 
1088.94

>  <PUBCHEM_SHAPE_VOLUME>  (1) 
275.8

>  <PUBCHEM_COORDINATE_TYPE>  (1) 
2
5
10

$$$$
