5877
     RDKit          3D

 30 33  0  0  1  0  0  0  0  0999 V2000
    2.4244    0.6316    1.8855 O   0  0  0  0  0  0  0  0  0  0  0  0
   -0.3958   -1.3673   -2.0288 O   0  0  0  0  0  0  0  0  0  0  0  0
    4.3170    1.6343   -0.7806 O   0  0  0  0  0  0  0  0  0  0  0  0
    5.7103   -0.5434   -0.0491 O   0  0  0  0  0  0  0  0  0  0  0  0
   -6.3129   -1.9789    1.6415 O   0  0  0  0  0  0  0  0  0  0  0  0
    6.0192   -2.5177    1.1103 O   0  0  0  0  0  0  0  0  0  0  0  0
    1.2353    0.6041   -0.2673 C   0  0  0  0  0  0  0  0  0  0  0  0
    0.0702    1.4245    0.3293 C   0  0  0  0  0  0  0  0  0  0  0  0
   -1.2854    1.1384   -0.3350 C   0  0  0  0  0  0  0  0  0  0  0  0
   -1.6312   -0.3772   -0.1417 C   0  0  0  0  0  0  0  0  0  0  0  0
    2.4083    1.1819    0.5715 C   0  0  0  0  0  0  0  0  0  0  0  0
    0.9124   -0.8867   -0.0444 C   0  0  0  0  0  0  0  0  0  0  0  0
   -0.4636   -1.3029   -0.6112 C   0  0  0  0  0  0  0  0  0  0  0  0
    0.6073    2.8535    0.3279 C   0  0  0  0  0  0  0  0  0  0  0  0
   -3.0670   -0.7356   -0.6953 C   0  0  0  0  0  0  0  0  0  0  0  0
    2.1071    2.6956    0.6531 C   0  0  0  0  0  0  0  0  0  0  0  0
   -2.3787    2.0410    0.2638 C   0  0  0  0  0  0  0  0  0  0  0  0
   -3.7753    1.7172   -0.2833 C   0  0  0  0  0  0  0  0  0  0  0  0
    1.4818    0.8938   -1.7740 C   0  0  0  0  0  0  0  0  0  0  0  0
   -4.0708    0.2387   -0.0455 C   0  0  0  0  0  0  0  0  0  0  0  0
    3.7727    0.8831    0.0272 C   0  0  0  0  0  0  0  0  0  0  0  0
   -3.1971   -0.6188   -2.2318 C   0  0  0  0  0  0  0  0  0  0  0  0
   -3.3950   -2.1841   -0.3612 C   0  0  0  0  0  0  0  0  0  0  0  0
   -4.7874    2.7161    0.2951 C   0  0  0  0  0  0  0  0  0  0  0  0
   -5.1057   -0.1844    0.7018 C   0  0  0  0  0  0  0  0  0  0  0  0
    4.4309   -0.3853    0.5269 C   0  0  0  0  0  0  0  0  0  0  0  0
   -4.4239   -2.5956    0.3838 C   0  0  0  0  0  0  0  0  0  0  0  0
   -5.3578   -1.6171    0.9623 C   0  0  0  0  0  0  0  0  0  0  0  0
    6.4096   -1.6618    0.3281 C   0  0  0  0  0  0  0  0  0  0  0  0
    7.7412   -1.6971   -0.3588 C   0  0  0  0  0  0  0  0  0  0  0  0
  1 11  1  0
  2 13  1  0
  3 21  2  0
  4 26  1  0
  4 29  1  0
  5 28  2  0
  6 29  2  0
  7  8  1  0
  7 11  1  0
  7 12  1  0
  7 19  1  0
  8  9  1  0
  8 14  1  0
  9 10  1  0
  9 17  1  0
 10 13  1  0
 10 15  1  0
 11 16  1  0
 11 21  1  0
 12 13  1  0
 14 16  1  0
 15 20  1  0
 15 22  1  0
 15 23  1  0
 17 18  1  0
 18 20  1  0
 18 24  1  0
 20 25  2  0
 21 26  1  0
 23 27  2  0
 25 28  1  0
 27 28  1  0
 29 30  1  0
M  END
>  <PUBCHEM_COMPOUND_CID>  (1) 
5877

>  <PUBCHEM_CONFORMER_RMSD>  (1) 
0.8

>  <PUBCHEM_CONFORMER_DIVERSEORDER>  (1) 
1
7
8
5
6
4
3
2
10
9
11
12

>  <PUBCHEM_MMFF94_PARTIAL_CHARGES>  (1) 
24
1 -0.68
11 0.34
13 0.28
15 0.28
18 0.14
2 -0.68
20 -0.28
21 0.45
23 -0.29
25 -0.14
26 0.34
27 -0.14
28 0.54
29 0.66
3 -0.57
30 0.06
4 -0.43
5 -0.57
50 0.15
51 0.4
52 0.4
56 0.15
59 0.15
6 -0.57

>  <PUBCHEM_EFFECTIVE_ROTOR_COUNT>  (1) 
5.4

>  <PUBCHEM_PHARMACOPHORE_FEATURES>  (1) 
11
1 1 acceptor
1 1 donor
1 2 acceptor
1 2 donor
1 3 acceptor
1 5 acceptor
1 6 acceptor
5 7 8 11 14 16 rings
6 15 20 23 25 27 28 rings
6 7 8 9 10 12 13 rings
6 9 10 15 17 18 20 rings

>  <PUBCHEM_HEAVY_ATOM_COUNT>  (1) 
30

>  <PUBCHEM_ATOM_DEF_STEREO_COUNT>  (1) 
8

>  <PUBCHEM_ATOM_UDEF_STEREO_COUNT>  (1) 
0

>  <PUBCHEM_BOND_DEF_STEREO_COUNT>  (1) 
0

>  <PUBCHEM_BOND_UDEF_STEREO_COUNT>  (1) 
0

>  <PUBCHEM_ISOTOPIC_ATOM_COUNT>  (1) 
0

>  <PUBCHEM_COMPONENT_COUNT>  (1) 
1

>  <PUBCHEM_CACTVS_TAUTO_COUNT>  (1) 
6

>  <PUBCHEM_CONFORMER_ID>  (1) 
000016F500000001

>  <PUBCHEM_MMFF94_ENERGY>  (1) 
99.196

>  <PUBCHEM_FEATURE_SELFOVERLAP>  (1) 
55.922

>  <PUBCHEM_SHAPE_FINGERPRINT>  (1) 
10319926 262 18341602703188911936
10675989 125 16827842085621832425
11135609 12 18410018723432238875
11456790 92 17846230968764606107
11578080 2 12390965449081536506
117089 54 18262809573950581306
12035758 1 17632859715986130358
12107183 9 18265899064079656976
12166972 35 18040441014112576500
12236239 1 18186806863899282268
12422481 6 17489583438149936638
12633257 1 16773516676064529616
13009979 54 18260554432588568389
13073987 5 18410293648768835616
13140716 1 18343584070857069137
13224815 77 18198901594999999877
13782708 43 17313097553889510826
14251764 30 18186519912628175090
14341114 176 18262520406928970809
14420673 8 18411702041264089530
14955137 171 18412544318837297648
15042514 8 18411700954616459528
17492 89 18267298927249616235
1813 80 17749100089838855340
18393751 57 16403627994086366321
21033648 29 17560501963362607897
21267235 1 18410299107809107050
22182313 1 17845952740165836349
22950370 63 18335420179692672136
23522609 53 18121535502488214049
23559900 14 18271513261273109360
3004659 81 18335702711911572868
335352 9 18341608166472286381
3383291 50 18408317809363197882
34797466 226 16226611913117992132
350125 39 18340775952466472961
465052 167 18413394250315935870
474113 269 18268984458076886343
5104073 3 18272932734710192848
5265222 85 18201442527964861948
54039377 194 18410862045347456382
559249 180 18340483365923616148
57527293 21 17985558977523024167
59755656 215 18270398261887379262
6086070 43 17059188407260133273
636775 8 18340497665125805086
7970288 3 18265891535076073691
999808 66 18187656803298345491

>  <PUBCHEM_SHAPE_MULTIPOLES>  (1) 
582.17
15.25
3.11
1.35
17.52
0.58
-0.41
-10.75
3.94
-0.96
0.59
-0.59
-0.37
0.22

>  <PUBCHEM_SHAPE_SELFOVERLAP>  (1) 
1248.251

>  <PUBCHEM_SHAPE_VOLUME>  (1) 
317.1

>  <PUBCHEM_COORDINATE_TYPE>  (1) 
2
5
10

$$$$
