5902
     RDKit          3D

 23 23  0  0  1  0  0  0  0  0999 V2000
   -2.1642   -0.1104   -0.0975 O   0  0  0  0  0  0  0  0  0  0  0  0
   -2.1363    2.1255    0.4589 O   0  0  0  0  0  0  0  0  0  0  0  0
    3.5308   -2.1606   -0.0799 N   0  0  0  0  0  0  0  0  0  0  0  0
    0.5257   -0.0244    0.4483 N   0  0  0  0  0  0  0  0  0  0  0  0
    2.3555   -1.6358    0.6067 C   0  0  0  0  0  0  0  0  0  0  0  0
    1.7069   -0.5352   -0.2274 C   0  0  0  0  0  0  0  0  0  0  0  0
   -0.1068    1.0323   -0.3460 C   0  0  0  0  0  0  0  0  0  0  0  0
   -5.5311   -1.7988    0.2944 C   0  0  0  0  0  0  0  0  0  0  0  0
   -4.0366   -1.6006   -0.0062 C   0  0  0  0  0  0  0  0  0  0  0  0
    3.1355   -3.0874   -1.1417 C   0  0  0  0  0  0  0  0  0  0  0  0
    4.4265   -2.8258    0.8676 C   0  0  0  0  0  0  0  0  0  0  0  0
    0.6129    2.3538   -0.1814 C   0  0  0  0  0  0  0  0  0  0  0  0
   -3.5466   -0.1770    0.2303 C   0  0  0  0  0  0  0  0  0  0  0  0
   -1.5686    1.1153    0.0629 C   0  0  0  0  0  0  0  0  0  0  0  0
   -6.3674   -0.8809   -0.6003 C   0  0  0  0  0  0  0  0  0  0  0  0
   -5.9759   -3.2497    0.1054 C   0  0  0  0  0  0  0  0  0  0  0  0
    4.3460   -3.5923   -1.9086 C   0  0  0  0  0  0  0  0  0  0  0  0
    3.7514   -4.0246    1.5123 C   0  0  0  0  0  0  0  0  0  0  0  0
    0.6452    3.2665   -1.2359 C   0  0  0  0  0  0  0  0  0  0  0  0
    1.2436    2.6592    1.0248 C   0  0  0  0  0  0  0  0  0  0  0  0
    1.3082    4.4842   -1.0844 C   0  0  0  0  0  0  0  0  0  0  0  0
    1.9065    3.8772    1.1762 C   0  0  0  0  0  0  0  0  0  0  0  0
    1.9388    4.7896    0.1216 C   0  0  0  0  0  0  0  0  0  0  0  0
  1 13  1  0
  1 14  1  0
  2 14  2  0
  3  5  1  0
  3 10  1  0
  3 11  1  0
  4  6  1  0
  4  7  1  0
  5  6  1  0
  7 12  1  0
  7 14  1  0
  8  9  1  0
  8 15  1  0
  8 16  1  0
  9 13  1  0
 10 17  1  0
 11 18  1  0
 12 19  2  0
 12 20  1  0
 19 21  1  0
 20 22  2  0
 21 23  2  0
 22 23  1  0
M  END
>  <PUBCHEM_COMPOUND_CID>  (1) 
5902

>  <PUBCHEM_CONFORMER_RMSD>  (1) 
1.2

>  <PUBCHEM_CONFORMER_DIVERSEORDER>  (1) 
1
46
16
6
54
9
45
65
20
50
26
14
52
27
32
2
21
60
42
69
25
23
13
15
64
4
70
30
41
17
44
55
10
62
58
47
37
35
11
63
53
40
48
57
51
43
34
59
49
5
24
66
36
67
56
31
22
7
39
18
68
12
28
33
19
29
61
3
8
38

>  <PUBCHEM_MMFF94_PARTIAL_CHARGES>  (1) 
23
1 -0.43
10 0.27
11 0.27
12 -0.14
13 0.28
14 0.66
19 -0.15
2 -0.57
20 -0.15
21 -0.15
22 -0.15
23 -0.15
29 0.36
3 -0.81
4 -0.9
5 0.27
51 0.15
52 0.15
53 0.15
54 0.15
55 0.15
6 0.27
7 0.47

>  <PUBCHEM_EFFECTIVE_ROTOR_COUNT>  (1) 
12

>  <PUBCHEM_PHARMACOPHORE_FEATURES>  (1) 
6
1 2 acceptor
1 3 cation
1 4 cation
1 4 donor
3 8 15 16 hydrophobe
6 12 19 20 21 22 23 rings

>  <PUBCHEM_HEAVY_ATOM_COUNT>  (1) 
23

>  <PUBCHEM_ATOM_DEF_STEREO_COUNT>  (1) 
0

>  <PUBCHEM_ATOM_UDEF_STEREO_COUNT>  (1) 
1

>  <PUBCHEM_BOND_DEF_STEREO_COUNT>  (1) 
0

>  <PUBCHEM_BOND_UDEF_STEREO_COUNT>  (1) 
0

>  <PUBCHEM_ISOTOPIC_ATOM_COUNT>  (1) 
0

>  <PUBCHEM_COMPONENT_COUNT>  (1) 
1

>  <PUBCHEM_CACTVS_TAUTO_COUNT>  (1) 
1

>  <PUBCHEM_CONFORMER_ID>  (1) 
0000170E00000001

>  <PUBCHEM_MMFF94_ENERGY>  (1) 
39.8897

>  <PUBCHEM_FEATURE_SELFOVERLAP>  (1) 
30.446

>  <PUBCHEM_SHAPE_FINGERPRINT>  (1) 
10554248 39 18340757248674677223
11056379 131 17762344613380412846
12293681 25 17973405924438993205
12342043 65 17344068455940602646
12788726 201 17757283582489549386
12969540 37 18334852870036267551
13533116 47 18268997652073403643
13955234 65 18266180724145656137
13968360 50 17976533141856520581
14863182 85 17975134562971323413
15042514 8 18050284761090018883
17859628 70 18340208621440376075
1813 80 18340772546124669823
20028762 73 18053100915411573580
20286276 3 18410299138264313689
20600515 1 17914342272940043577
21049683 271 18334862757552175668
21120745 212 18053968172625552932
21796203 349 18049198602342175667
22849339 104 17475524876213144014
22956985 138 18335974359343721154
23366157 5 18335427923360678661
23559900 14 18336816555581491001
249999 5 18267583705082408553
3421961 26 18410007780066675651
4409770 3 17540528029238359549
59755656 215 18264770046242835125
621550 5 17845090658736004554
77188 2 18409726219016701556

>  <PUBCHEM_SHAPE_MULTIPOLES>  (1) 
451.63
11.39
7.76
1.26
22.82
4.01
0.21
-17.51
0.37
-11.29
0.35
-1.62
-0.55
0.48

>  <PUBCHEM_SHAPE_SELFOVERLAP>  (1) 
890.38

>  <PUBCHEM_SHAPE_VOLUME>  (1) 
271.1

>  <PUBCHEM_COORDINATE_TYPE>  (1) 
2
5
10

$$$$
