5913
     RDKit          3D

 24 25  0  0  0  0  0  0  0  0999 V2000
   -2.7826   -0.3459   -1.4576 S   0  0  0  0  0  0  0  0  0  0  0  0
    1.4248   -2.8956    0.8107 O   0  0  0  0  0  0  0  0  0  0  0  0
   -3.9951    4.4343    0.2125 N   0  0  0  0  0  0  0  0  0  0  0  0
   -0.2199   -1.5752   -0.2299 N   0  0  0  0  0  0  0  0  0  0  0  0
   -3.4214    2.1634   -0.5157 C   0  0  0  0  0  0  0  0  0  0  0  0
   -3.7757    3.0661    0.6666 C   0  0  0  0  0  0  0  0  0  0  0  0
   -3.2109    0.7234   -0.0538 C   0  0  0  0  0  0  0  0  0  0  0  0
   -2.7801    4.9753   -0.3992 C   0  0  0  0  0  0  0  0  0  0  0  0
   -4.4251    5.2838    1.3245 C   0  0  0  0  0  0  0  0  0  0  0  0
   -2.5970   -1.9323   -0.6511 C   0  0  0  0  0  0  0  0  0  0  0  0
   -1.3724   -2.3628   -0.1391 C   0  0  0  0  0  0  0  0  0  0  0  0
   -3.7234   -2.7485   -0.5412 C   0  0  0  0  0  0  0  0  0  0  0  0
   -1.2745   -3.6079    0.4821 C   0  0  0  0  0  0  0  0  0  0  0  0
   -3.6254   -3.9935    0.0801 C   0  0  0  0  0  0  0  0  0  0  0  0
   -2.4011   -4.4232    0.5917 C   0  0  0  0  0  0  0  0  0  0  0  0
    1.0660   -1.8757    0.2341 C   0  0  0  0  0  0  0  0  0  0  0  0
    2.0273   -0.7684   -0.0575 C   0  0  0  0  0  0  0  0  0  0  0  0
    4.3354    0.1600    0.0989 C   0  0  0  0  0  0  0  0  0  0  0  0
    3.3084   -0.8723    0.3260 C   0  0  0  0  0  0  0  0  0  0  0  0
    4.1309    1.1157   -0.8831 C   0  0  0  0  0  0  0  0  0  0  0  0
    5.4853    0.1546    0.8717 C   0  0  0  0  0  0  0  0  0  0  0  0
    5.1030    2.0925   -1.0984 C   0  0  0  0  0  0  0  0  0  0  0  0
    6.4574    1.1316    0.6563 C   0  0  0  0  0  0  0  0  0  0  0  0
    6.2661    2.1006   -0.3287 C   0  0  0  0  0  0  0  0  0  0  0  0
  1  7  1  0
  1 10  1  0
  2 16  2  0
  3  6  1  0
  3  8  1  0
  3  9  1  0
  4 11  1  0
  4 16  1  0
  5  6  1  0
  5  7  1  0
 10 11  2  0
 10 12  1  0
 11 13  1  0
 12 14  2  0
 13 15  2  0
 14 15  1  0
 16 17  1  0
 17 19  2  0
 18 19  1  0
 18 20  2  0
 18 21  1  0
 20 22  1  0
 21 23  2  0
 22 24  2  0
 23 24  1  0
M  END
>  <PUBCHEM_COMPOUND_CID>  (1) 
5913

>  <PUBCHEM_CONFORMER_RMSD>  (1) 
1

>  <PUBCHEM_CONFORMER_DIVERSEORDER>  (1) 
1
50
10
29
42
17
16
63
52
30
35
25
69
47
32
64
60
26
46
9
65
68
14
27
7
59
37
66
8
33
45
22
31
15
44
55
36
4
20
41
38
28
5
58
48
24
2
62
34
49
53
18
21
57
11
6
40
51
3
61
13
12
23
54
39
56
67
43
19

>  <PUBCHEM_MMFF94_PARTIAL_CHARGES>  (1) 
35
1 -0.33
10 0.1
11 0.12
12 -0.15
13 -0.15
14 -0.15
15 -0.15
16 0.62
17 -0.14
18 0.03
19 -0.18
2 -0.57
20 -0.15
21 -0.15
22 -0.15
23 -0.15
24 -0.15
3 -0.81
37 0.15
38 0.15
39 0.37
4 -0.55
40 0.15
41 0.15
42 0.15
43 0.15
44 0.15
45 0.15
46 0.15
47 0.15
48 0.15
6 0.27
7 0.23
8 0.27
9 0.27

>  <PUBCHEM_EFFECTIVE_ROTOR_COUNT>  (1) 
9

>  <PUBCHEM_PHARMACOPHORE_FEATURES>  (1) 
5
1 2 acceptor
1 3 cation
1 4 donor
6 10 11 12 13 14 15 rings
6 18 20 21 22 23 24 rings

>  <PUBCHEM_HEAVY_ATOM_COUNT>  (1) 
24

>  <PUBCHEM_ATOM_DEF_STEREO_COUNT>  (1) 
0

>  <PUBCHEM_ATOM_UDEF_STEREO_COUNT>  (1) 
0

>  <PUBCHEM_BOND_DEF_STEREO_COUNT>  (1) 
0

>  <PUBCHEM_BOND_UDEF_STEREO_COUNT>  (1) 
1

>  <PUBCHEM_ISOTOPIC_ATOM_COUNT>  (1) 
0

>  <PUBCHEM_COMPONENT_COUNT>  (1) 
1

>  <PUBCHEM_CACTVS_TAUTO_COUNT>  (1) 
2

>  <PUBCHEM_CONFORMER_ID>  (1) 
0000171900000001

>  <PUBCHEM_MMFF94_ENERGY>  (1) 
69.7732

>  <PUBCHEM_FEATURE_SELFOVERLAP>  (1) 
25.371

>  <PUBCHEM_SHAPE_FINGERPRINT>  (1) 
10937287 8 18195245516768284465
11059845 2 18122031275500640298
11477941 20 17912915377456049598
11761917 142 18341883135270317984
12107183 9 18117544142773250466
12293681 160 18118375519751284847
12788726 201 18339062862069311699
14251764 75 18125445207223242473
14790565 3 18122626050697883381
14849402 71 17690282608342558467
15400415 2 18122343484837494056
15419008 47 17914054463144554200
155225 5 18411417315087261336
16992779 147 17477500707346736345
17844677 252 18261957474667673758
20238998 120 18123187077102347303
21033650 10 18190202220536228374
21304253 13 18050292759111174923
283562 15 18335132142196623355
397830 11 10737283598288875134
5219985 13 18196936574273874293
57527585 21 18200293499094940319
6700243 42 17695665061278740166
7288768 16 18115029602276180395
7808743 9 18411697660360407609
9849439 229 18267587897139872501
9980921 221 18264230131005884772

>  <PUBCHEM_SHAPE_MULTIPOLES>  (1) 
481.93
14.22
7.94
1.06
25.55
7.5
-0.09
11.42
0.53
-17.53
2.24
-0.11
0.42
-2.12

>  <PUBCHEM_SHAPE_SELFOVERLAP>  (1) 
982.885

>  <PUBCHEM_SHAPE_VOLUME>  (1) 
280

>  <PUBCHEM_COORDINATE_TYPE>  (1) 
2
5
10

$$$$
