5917
     RDKit          3D

 10 11  0  0  0  0  0  0  0  0999 V2000
    0.5670   -0.6406    0.2123 N   0  0  0  0  0  0  0  0  0  0  0  0
    1.7833   -1.1053   -0.1106 N   0  0  0  0  0  0  0  0  0  0  0  0
    1.7784    1.1230   -0.1339 N   0  0  0  0  0  0  0  0  0  0  0  0
    2.5185   -0.0217   -0.3213 N   0  0  0  0  0  0  0  0  0  0  0  0
   -2.5301   -0.0484   -0.0773 C   0  0  0  0  0  0  0  0  0  0  0  0
   -1.7372   -1.3209   -0.3878 C   0  0  0  0  0  0  0  0  0  0  0  0
   -1.8057    1.2614   -0.4024 C   0  0  0  0  0  0  0  0  0  0  0  0
   -0.5245   -1.5321    0.5145 C   0  0  0  0  0  0  0  0  0  0  0  0
   -0.6164    1.5602    0.5089 C   0  0  0  0  0  0  0  0  0  0  0  0
    0.5668    0.7243    0.1975 C   0  0  0  0  0  0  0  0  0  0  0  0
  1  2  1  0
  1  8  1  0
  1 10  1  0
  2  4  2  0
  3  4  1  0
  3 10  2  0
  5  6  1  0
  5  7  1  0
  6  8  1  0
  7  9  1  0
  9 10  1  0
M  END
>  <PUBCHEM_COMPOUND_CID>  (1) 
5917

>  <PUBCHEM_CONFORMER_RMSD>  (1) 
0.4

>  <PUBCHEM_CONFORMER_DIVERSEORDER>  (1) 
1
2
3
4

>  <PUBCHEM_MMFF94_PARTIAL_CHARGES>  (1) 
6
1 0.31
10 0.01
2 -0.42
3 -0.34
8 0.26
9 0.18

>  <PUBCHEM_EFFECTIVE_ROTOR_COUNT>  (1) 
1

>  <PUBCHEM_PHARMACOPHORE_FEATURES>  (1) 
3
3 1 3 10 cation
5 1 2 3 4 10 rings
7 1 5 6 7 8 9 10 rings

>  <PUBCHEM_HEAVY_ATOM_COUNT>  (1) 
10

>  <PUBCHEM_ATOM_DEF_STEREO_COUNT>  (1) 
0

>  <PUBCHEM_ATOM_UDEF_STEREO_COUNT>  (1) 
0

>  <PUBCHEM_BOND_DEF_STEREO_COUNT>  (1) 
0

>  <PUBCHEM_BOND_UDEF_STEREO_COUNT>  (1) 
0

>  <PUBCHEM_ISOTOPIC_ATOM_COUNT>  (1) 
0

>  <PUBCHEM_COMPONENT_COUNT>  (1) 
1

>  <PUBCHEM_CACTVS_TAUTO_COUNT>  (1) 
1

>  <PUBCHEM_CONFORMER_ID>  (1) 
0000171D00000001

>  <PUBCHEM_MMFF94_ENERGY>  (1) 
4.813

>  <PUBCHEM_FEATURE_SELFOVERLAP>  (1) 
15.271

>  <PUBCHEM_SHAPE_FINGERPRINT>  (1) 
12423570 1 15599481593282740913
12897270 3 18410572920068211661
16945 1 18411134736113278413
17844478 74 18041574619211613051
18185500 45 17905601108269804219
21040471 1 18337667516607952096
23552423 10 18334013908283307158
241688 4 18194114342609785193
2748010 2 16969137627450332709
29004967 10 16271928207468292384
5084963 1 18411136905161550657
66348 1 17834393415255860045

>  <PUBCHEM_SHAPE_MULTIPOLES>  (1) 
185.87
3.15
1.78
0.69
0.42
0.02
-0.03
0.05
0.53
-0.38
-0.12
-0.1
-0.01
0

>  <PUBCHEM_SHAPE_SELFOVERLAP>  (1) 
380.594

>  <PUBCHEM_SHAPE_VOLUME>  (1) 
104.3

>  <PUBCHEM_COORDINATE_TYPE>  (1) 
2
5
10

$$$$
