5931
     RDKit          3D

  9  9  0  0  0  0  0  0  0  0999 V2000
    3.1471   -0.2875   -0.1073 O   0  0  0  0  0  0  0  0  0  0  0  0
   -2.3602    0.4256    0.1871 N   0  0  0  0  0  0  0  0  0  0  0  0
   -0.9634    0.2448    0.1125 C   0  0  0  0  0  0  0  0  0  0  0  0
   -0.1214    1.3520    0.0062 C   0  0  0  0  0  0  0  0  0  0  0  0
   -0.4238   -1.0410    0.1450 C   0  0  0  0  0  0  0  0  0  0  0  0
    1.2600    1.1731   -0.0675 C   0  0  0  0  0  0  0  0  0  0  0  0
    0.9576   -1.2198    0.0713 C   0  0  0  0  0  0  0  0  0  0  0  0
    1.7995   -0.1128   -0.0350 C   0  0  0  0  0  0  0  0  0  0  0  0
   -3.2953   -0.5344   -0.3123 C   0  0  0  0  0  0  0  0  0  0  0  0
  1  8  1  0
  2  3  1  0
  2  9  1  0
  3  4  2  0
  3  5  1  0
  4  6  1  0
  5  7  2  0
  6  8  2  0
  7  8  1  0
M  END
>  <PUBCHEM_COMPOUND_CID>  (1) 
5931

>  <PUBCHEM_CONFORMER_RMSD>  (1) 
0.4

>  <PUBCHEM_CONFORMER_DIVERSEORDER>  (1) 
1
2

>  <PUBCHEM_MMFF94_PARTIAL_CHARGES>  (1) 
15
1 -0.53
10 0.15
11 0.15
12 0.4
13 0.15
14 0.15
18 0.45
2 -0.87
3 0.1
4 -0.15
5 -0.15
6 -0.15
7 -0.15
8 0.08
9 0.37

>  <PUBCHEM_EFFECTIVE_ROTOR_COUNT>  (1) 
1

>  <PUBCHEM_PHARMACOPHORE_FEATURES>  (1) 
4
1 1 donor
1 2 cation
1 2 donor
6 3 4 5 6 7 8 rings

>  <PUBCHEM_HEAVY_ATOM_COUNT>  (1) 
9

>  <PUBCHEM_ATOM_DEF_STEREO_COUNT>  (1) 
0

>  <PUBCHEM_ATOM_UDEF_STEREO_COUNT>  (1) 
0

>  <PUBCHEM_BOND_DEF_STEREO_COUNT>  (1) 
0

>  <PUBCHEM_BOND_UDEF_STEREO_COUNT>  (1) 
0

>  <PUBCHEM_ISOTOPIC_ATOM_COUNT>  (1) 
0

>  <PUBCHEM_COMPONENT_COUNT>  (1) 
1

>  <PUBCHEM_CACTVS_TAUTO_COUNT>  (1) 
2

>  <PUBCHEM_CONFORMER_ID>  (1) 
0000172B00000001

>  <PUBCHEM_MMFF94_ENERGY>  (1) 
31.6815

>  <PUBCHEM_FEATURE_SELFOVERLAP>  (1) 
20.297

>  <PUBCHEM_SHAPE_FINGERPRINT>  (1) 
12897270 3 18408881832825301111
14128692 85 18201434826492296871
14325111 11 18410575119276180777
16945 1 18407764732979419794
21040471 1 18193559093195284136
21293036 1 18335425689956124772
23235685 24 18409163324781479208
23402655 69 18194664992305015501
23552423 10 17972889063821725258
2748010 2 18121224448039073982
29004967 10 18334300842131698769
5084963 1 18342457049446128305

>  <PUBCHEM_SHAPE_MULTIPOLES>  (1) 
174.37
4.02
1.34
0.62
1.55
0.11
0
-0.61
0.39
-0.21
-0.02
0.05
-0.01
-0.08

>  <PUBCHEM_SHAPE_SELFOVERLAP>  (1) 
357.471

>  <PUBCHEM_SHAPE_VOLUME>  (1) 
101.6

>  <PUBCHEM_COORDINATE_TYPE>  (1) 
2
5
10

$$$$
