5944
     RDKit          3D

 14 16  0  0  1  0  0  0  0  0999 V2000
    0.9284   -0.0027    1.5427 O   0  0  0  0  0  0  0  0  0  0  0  0
   -2.0625    0.0004    0.4531 O   0  0  0  0  0  0  0  0  0  0  0  0
   -1.7676   -2.2591    0.3709 O   0  0  0  0  0  0  0  0  0  0  0  0
   -1.7679    2.2596    0.3692 O   0  0  0  0  0  0  0  0  0  0  0  0
   -0.0164   -0.7679   -0.4284 C   0  0  0  0  0  0  0  0  0  0  0  0
   -0.0157    0.7682   -0.4270 C   0  0  0  0  0  0  0  0  0  0  0  0
    1.0954   -1.0889    0.5918 C   0  0  0  0  0  0  0  0  0  0  0  0
    1.0948    1.0868    0.5956 C   0  0  0  0  0  0  0  0  0  0  0  0
    2.4959   -0.7651    0.0707 C   0  0  0  0  0  0  0  0  0  0  0  0
    2.4962    0.7660    0.0755 C   0  0  0  0  0  0  0  0  0  0  0  0
   -1.3590   -1.1253    0.1649 C   0  0  0  0  0  0  0  0  0  0  0  0
   -1.3589    1.1259    0.1647 C   0  0  0  0  0  0  0  0  0  0  0  0
    0.1168   -1.4734   -1.7730 C   0  0  0  0  0  0  0  0  0  0  0  0
    0.1205    1.4754   -1.7706 C   0  0  0  0  0  0  0  0  0  0  0  0
  1  7  1  0
  1  8  1  0
  2 11  1  0
  2 12  1  0
  3 11  2  0
  4 12  2  0
  5  6  1  0
  5  7  1  0
  5 11  1  0
  5 13  1  0
  6  8  1  0
  6 12  1  0
  6 14  1  0
  7  9  1  0
  8 10  1  0
  9 10  1  0
M  END
>  <PUBCHEM_COMPOUND_CID>  (1) 
5944

>  <PUBCHEM_CONFORMER_RMSD>  (1) 
0.4

>  <PUBCHEM_CONFORMER_DIVERSEORDER>  (1) 
1

>  <PUBCHEM_MMFF94_PARTIAL_CHARGES>  (1) 
10
1 -0.56
11 0.66
12 0.66
2 -0.3
3 -0.57
4 -0.57
5 0.06
6 0.06
7 0.28
8 0.28

>  <PUBCHEM_EFFECTIVE_ROTOR_COUNT>  (1) 
0.8

>  <PUBCHEM_PHARMACOPHORE_FEATURES>  (1) 
5
1 1 acceptor
1 3 acceptor
1 4 acceptor
5 2 5 6 11 12 rings
7 1 5 6 7 8 9 10 rings

>  <PUBCHEM_HEAVY_ATOM_COUNT>  (1) 
14

>  <PUBCHEM_ATOM_DEF_STEREO_COUNT>  (1) 
4

>  <PUBCHEM_ATOM_UDEF_STEREO_COUNT>  (1) 
0

>  <PUBCHEM_BOND_DEF_STEREO_COUNT>  (1) 
0

>  <PUBCHEM_BOND_UDEF_STEREO_COUNT>  (1) 
0

>  <PUBCHEM_ISOTOPIC_ATOM_COUNT>  (1) 
0

>  <PUBCHEM_COMPONENT_COUNT>  (1) 
1

>  <PUBCHEM_CACTVS_TAUTO_COUNT>  (1) 
1

>  <PUBCHEM_CONFORMER_ID>  (1) 
0000173800000001

>  <PUBCHEM_MMFF94_ENERGY>  (1) 
44.229

>  <PUBCHEM_FEATURE_SELFOVERLAP>  (1) 
25.478

>  <PUBCHEM_SHAPE_FINGERPRINT>  (1) 
12326174 3 16975592297502443615
12423570 1 14544175499725923084
13024252 1 15140960600151857824
137420 1 15604849391785238966
14817 1 8979098873029994942
15557651 10 17837468787886209852
16945 1 18410858758810738368
20511035 2 18128521696480843410
21040471 1 18268423538523799960
21922407 69 16878766245691571240
22344851 341 16400844532875753370
23419403 2 16250168988355944605
23559900 14 18127132962642195390
241688 4 18040989670140503752
2748010 2 18125434465150539633
369184 2 16878489203210780712
5084963 1 17906700666962937428
54276843 12 17973160918081995710
68250623 7 18335151894518154094

>  <PUBCHEM_SHAPE_MULTIPOLES>  (1) 
264.64
2.66
2.06
1.32
0.67
0
-0.56
0
0.63
-0.92
-0.19
0.11
0
0

>  <PUBCHEM_SHAPE_SELFOVERLAP>  (1) 
593.792

>  <PUBCHEM_SHAPE_VOLUME>  (1) 
146.6

>  <PUBCHEM_COORDINATE_TYPE>  (1) 
2
5
10

$$$$
