5952
     RDKit          3D

 27 30  0  0  1  0  0  0  0  0999 V2000
    4.2530    1.5411   -0.8165 O   0  0  0  0  0  0  0  0  0  0  0  0
    5.6264   -0.6560   -0.1055 O   0  0  0  0  0  0  0  0  0  0  0  0
   -6.9050   -1.5453    1.0149 O   0  0  0  0  0  0  0  0  0  0  0  0
    5.9419   -2.6141    1.0792 O   0  0  0  0  0  0  0  0  0  0  0  0
    0.0788    1.5060    0.4650 C   0  0  0  0  0  0  0  0  0  0  0  0
    1.1863    0.6301   -0.1586 C   0  0  0  0  0  0  0  0  0  0  0  0
   -1.2994    1.2587   -0.1573 C   0  0  0  0  0  0  0  0  0  0  0  0
   -1.6840   -0.2397    0.0514 C   0  0  0  0  0  0  0  0  0  0  0  0
   -3.1120   -0.5905   -0.5199 C   0  0  0  0  0  0  0  0  0  0  0  0
    2.4017    1.1631    0.6319 C   0  0  0  0  0  0  0  0  0  0  0  0
    0.8325   -0.8374    0.1175 C   0  0  0  0  0  0  0  0  0  0  0  0
   -0.5602   -1.1984   -0.4298 C   0  0  0  0  0  0  0  0  0  0  0  0
    0.6716    2.9103    0.4196 C   0  0  0  0  0  0  0  0  0  0  0  0
    2.1669    2.6862    0.7088 C   0  0  0  0  0  0  0  0  0  0  0  0
   -2.3666    2.1674    0.4658 C   0  0  0  0  0  0  0  0  0  0  0  0
    1.3751    0.8466   -1.6828 C   0  0  0  0  0  0  0  0  0  0  0  0
   -4.1319    0.4398   -0.0176 C   0  0  0  0  0  0  0  0  0  0  0  0
   -3.7402    1.8941   -0.1333 C   0  0  0  0  0  0  0  0  0  0  0  0
   -3.5024   -2.0122   -0.0207 C   0  0  0  0  0  0  0  0  0  0  0  0
   -3.1354   -0.5785   -2.0651 C   0  0  0  0  0  0  0  0  0  0  0  0
    3.7295    0.8199    0.0315 C   0  0  0  0  0  0  0  0  0  0  0  0
   -4.9817   -2.3282   -0.1759 C   0  0  0  0  0  0  0  0  0  0  0  0
   -5.3359    0.1210    0.4862 C   0  0  0  0  0  0  0  0  0  0  0  0
   -5.8166   -1.2794    0.5088 C   0  0  0  0  0  0  0  0  0  0  0  0
    4.3799   -0.4545    0.5263 C   0  0  0  0  0  0  0  0  0  0  0  0
    6.3156   -1.7838    0.2618 C   0  0  0  0  0  0  0  0  0  0  0  0
    7.6118   -1.8664   -0.4857 C   0  0  0  0  0  0  0  0  0  0  0  0
  1 21  2  0
  2 25  1  0
  2 26  1  0
  3 24  2  0
  4 26  2  0
  5  6  1  0
  5  7  1  0
  5 13  1  0
  6 10  1  0
  6 11  1  0
  6 16  1  0
  7  8  1  0
  7 15  1  0
  8  9  1  0
  8 12  1  0
  9 17  1  0
  9 19  1  0
  9 20  1  0
 10 14  1  0
 10 21  1  0
 11 12  1  0
 13 14  1  0
 15 18  1  0
 17 18  1  0
 17 23  2  0
 19 22  1  0
 21 25  1  0
 22 24  1  0
 23 24  1  0
 26 27  1  0
M  END
>  <PUBCHEM_COMPOUND_CID>  (1) 
5952

>  <PUBCHEM_CONFORMER_RMSD>  (1) 
0.8

>  <PUBCHEM_CONFORMER_DIVERSEORDER>  (1) 
1
18
4
7
16
14
11
13
15
10
8
5
3
12
17
6
9
19
2

>  <PUBCHEM_MMFF94_PARTIAL_CHARGES>  (1) 
16
1 -0.57
10 0.06
17 -0.28
18 0.14
2 -0.43
21 0.45
22 0.06
23 -0.14
24 0.49
25 0.34
26 0.66
27 0.06
3 -0.57
4 -0.57
54 0.15
9 0.14

>  <PUBCHEM_EFFECTIVE_ROTOR_COUNT>  (1) 
5.8

>  <PUBCHEM_PHARMACOPHORE_FEATURES>  (1) 
7
1 1 acceptor
1 3 acceptor
1 4 acceptor
5 5 6 10 13 14 rings
6 5 6 7 8 11 12 rings
6 7 8 9 15 17 18 rings
6 9 17 19 22 23 24 rings

>  <PUBCHEM_HEAVY_ATOM_COUNT>  (1) 
27

>  <PUBCHEM_ATOM_DEF_STEREO_COUNT>  (1) 
6

>  <PUBCHEM_ATOM_UDEF_STEREO_COUNT>  (1) 
0

>  <PUBCHEM_BOND_DEF_STEREO_COUNT>  (1) 
0

>  <PUBCHEM_BOND_UDEF_STEREO_COUNT>  (1) 
0

>  <PUBCHEM_ISOTOPIC_ATOM_COUNT>  (1) 
0

>  <PUBCHEM_COMPONENT_COUNT>  (1) 
1

>  <PUBCHEM_CACTVS_TAUTO_COUNT>  (1) 
15

>  <PUBCHEM_CONFORMER_ID>  (1) 
0000174000000001

>  <PUBCHEM_MMFF94_ENERGY>  (1) 
73.5969

>  <PUBCHEM_FEATURE_SELFOVERLAP>  (1) 
35.619

>  <PUBCHEM_SHAPE_FINGERPRINT>  (1) 
10319926 262 18272078371072445240
10366900 7 13840259312681795685
10622 236 17270017760727328095
11456790 92 17917444137914502651
11524674 6 16773795900531703767
11578080 2 13254250289411622298
117089 54 17899146180742456523
12107183 9 18270689658217808777
12166972 35 18113060449870546564
12236239 1 18187087256037786668
12403259 226 18339917216489279777
12422481 6 17131828738471394030
12516196 113 18413949486661113512
12616971 3 17704067438532128237
12633257 1 16558473109904871113
12760667 363 18342453746742969087
13009979 54 18334019388630500341
13073987 5 18412824707393127656
13140716 1 18055072318585980747
13288520 33 18411136909451340605
13533116 47 18336828692874297816
13685833 64 18409449189652798338
13690498 29 18186798050151377588
13782708 43 18040711506678874819
13862211 1 18343017822204577967
13911987 19 13407079188689285360
14251764 18 18343866636744078740
14251764 30 18260265248350789174
14341114 176 18337673117577758401
14347332 77 18335701624372451388
14420673 8 18411983542042395395
15042514 8 18341332189053675384
15183329 4 18261108539805447194
15196674 1 18412260674685824497
16120349 21 18271816683147061145
16728300 4 18265886969705218646
17349148 13 18187366540565092109
17492 89 18268143352132359843
1813 80 17676480641006202708
18393751 57 16404187636972966017
1979834 28 17131841954033282606
20028762 73 18130784615817912543
21130935 74 18201438146402394259
21150785 3 16370730340000453286
21267235 1 18410860949439387474
21279426 13 18408877417509483916
21365058 113 17386010597584926389
21682296 61 18413674603805470539
22223350 30 17487042612375160627
23522609 53 18123223248605251593
23559900 14 18339915021576115553
3004659 81 18260548914404178050
335352 9 18340483374930633229
3383291 50 18408036325611903898
3472631 163 8790877502451671858
350125 39 18411985797232574105
3680242 22 18342185500333959273
46194498 28 16950843725523097260
465052 167 18343586248478555116
474113 269 18200300131231664615
5104073 3 18131632292053767768
54039377 194 18411426085985096614
559249 180 18340202986142505897
57527293 21 17203319070261490260
59755656 215 18339078190105874022
6138700 20 18410856521418094370
636775 8 18270410391603458846
7970288 3 18339355391685382163
999808 66 18187094953035867595

>  <PUBCHEM_SHAPE_MULTIPOLES>  (1) 
532.17
16.1
2.95
1.08
13.52
0.55
-0.43
-14.19
2.44
1.09
0.54
-0.23
-0.09
-0.19

>  <PUBCHEM_SHAPE_SELFOVERLAP>  (1) 
1131.466

>  <PUBCHEM_SHAPE_VOLUME>  (1) 
294.2

>  <PUBCHEM_COORDINATE_TYPE>  (1) 
2
5
10

$$$$
