596
     RDKit          3D

 17 18  0  0  1  0  0  0  0  0999 V2000
   -1.3331   -0.7467   -0.7387 O   0  0  0  0  0  0  0  0  0  0  0  0
   -0.9514    2.6632    0.2075 O   0  0  0  0  0  0  0  0  0  0  0  0
   -3.2278    1.1254    1.6534 O   0  0  0  0  0  0  0  0  0  0  0  0
   -3.4910   -2.5660   -0.7385 O   0  0  0  0  0  0  0  0  0  0  0  0
    1.8214    1.8180   -1.4015 O   0  0  0  0  0  0  0  0  0  0  0  0
    0.8530    0.0490   -0.2795 N   0  0  0  0  0  0  0  0  0  0  0  0
    3.2411    0.3906   -0.3532 N   0  0  0  0  0  0  0  0  0  0  0  0
    4.6904   -1.0767    0.7215 N   0  0  0  0  0  0  0  0  0  0  0  0
   -1.1072    1.2824    0.4824 C   0  0  0  0  0  0  0  0  0  0  0  0
   -2.5653    0.8854    0.4270 C   0  0  0  0  0  0  0  0  0  0  0  0
   -0.4994    0.4199   -0.6152 C   0  0  0  0  0  0  0  0  0  0  0  0
   -2.4570   -0.6013    0.1436 C   0  0  0  0  0  0  0  0  0  0  0  0
   -3.6990   -1.1822   -0.5076 C   0  0  0  0  0  0  0  0  0  0  0  0
    1.0610   -1.0847    0.4911 C   0  0  0  0  0  0  0  0  0  0  0  0
    1.9706    0.8062   -0.7139 C   0  0  0  0  0  0  0  0  0  0  0  0
    2.2745   -1.5017    0.8474 C   0  0  0  0  0  0  0  0  0  0  0  0
    3.4194   -0.6808    0.3742 C   0  0  0  0  0  0  0  0  0  0  0  0
  1 11  1  0
  1 12  1  0
  2  9  1  0
  3 10  1  0
  4 13  1  0
  5 15  2  0
  6 11  1  0
  6 14  1  0
  6 15  1  0
  7 15  1  0
  7 17  2  0
  8 17  1  0
  9 10  1  0
  9 11  1  0
 10 12  1  0
 12 13  1  0
 14 16  2  0
 16 17  1  0
M  END
>  <PUBCHEM_COMPOUND_CID>  (1) 
596

>  <PUBCHEM_CONFORMER_RMSD>  (1) 
0.6

>  <PUBCHEM_CONFORMER_DIVERSEORDER>  (1) 
1
72
67
84
76
20
70
25
39
40
79
28
87
49
21
52
66
89
47
62
65
78
73
29
31
9
57
44
32
68
54
64
90
4
22
42
33
26
55
81
58
30
14
80
17
74
85
5
88
8
36
11
23
82
83
59
7
6
61
43
56
77
45
75
48
53
27
12
15
19
2
18
50
16
37
69
13
34
3
46
71
86
41
51
38
10
60
35
24
63

>  <PUBCHEM_MMFF94_PARTIAL_CHARGES>  (1) 
24
1 -0.56
10 0.28
11 0.58
12 0.28
13 0.28
14 -0.04
15 0.84
16 -0.14
17 0.49
2 -0.68
24 0.4
25 0.4
26 0.15
27 0.4
28 0.15
29 0.4
3 -0.68
30 0.4
4 -0.68
5 -0.57
6 -0.47
7 -0.66
8 -0.85
9 0.28

>  <PUBCHEM_EFFECTIVE_ROTOR_COUNT>  (1) 
3

>  <PUBCHEM_PHARMACOPHORE_FEATURES>  (1) 
12
1 1 acceptor
1 2 acceptor
1 2 donor
1 3 acceptor
1 3 donor
1 4 acceptor
1 4 donor
1 5 acceptor
1 7 donor
1 8 donor
5 1 9 10 11 12 rings
6 6 7 14 15 16 17 rings

>  <PUBCHEM_HEAVY_ATOM_COUNT>  (1) 
17

>  <PUBCHEM_ATOM_DEF_STEREO_COUNT>  (1) 
0

>  <PUBCHEM_ATOM_UDEF_STEREO_COUNT>  (1) 
4

>  <PUBCHEM_BOND_DEF_STEREO_COUNT>  (1) 
0

>  <PUBCHEM_BOND_UDEF_STEREO_COUNT>  (1) 
0

>  <PUBCHEM_ISOTOPIC_ATOM_COUNT>  (1) 
0

>  <PUBCHEM_COMPONENT_COUNT>  (1) 
1

>  <PUBCHEM_CACTVS_TAUTO_COUNT>  (1) 
3

>  <PUBCHEM_CONFORMER_ID>  (1) 
0000025400000001

>  <PUBCHEM_MMFF94_ENERGY>  (1) 
48.5725

>  <PUBCHEM_FEATURE_SELFOVERLAP>  (1) 
60.949

>  <PUBCHEM_SHAPE_FINGERPRINT>  (1) 
11132069 177 18201726106821367513
11578080 2 18193247845601067989
11769659 78 18335133206835939390
11806522 49 18334850654244488982
12251169 10 18337397019583539297
13538477 17 18341616992661350981
13764800 53 16773524265551316937
15375462 189 18194410107159402555
15375462 478 18413100654535386190
16945 1 18268155257702505301
17844478 74 15123799482584231811
17862501 102 18336256895230413026
19050596 39 18409170991287514426
19422 9 18412267258912640454
19433438 48 18336824204121933298
200 152 18260540134742257151
20645477 70 17385437765032932254
22112679 90 18342748437476493813
22445834 79 18189620444933754234
23388829 49 18334296448454163764
23402539 116 18334565816298030970
23557571 272 17632304453486046568
23598291 2 18335433360699351756
26918003 58 17603876572039707817
57096353 35 18262245528874334206
7097593 13 18194402191102036066
77492 1 18409457998034526069
90316 7 18341054016933273657

>  <PUBCHEM_SHAPE_MULTIPOLES>  (1) 
305.56
6.99
2.14
1.07
2.2
0.22
0.09
-3.14
0.82
-1.14
-0.16
-0.24
0.19
-1.68

>  <PUBCHEM_SHAPE_SELFOVERLAP>  (1) 
642.416

>  <PUBCHEM_SHAPE_VOLUME>  (1) 
170.4

>  <PUBCHEM_COORDINATE_TYPE>  (1) 
2
5
10

$$$$
