5979
     RDKit          3D

 25 31  0  0  1  0  0  0  0  0999 V2000
    2.9214   -2.1885   -0.0211 O   0  0  0  0  0  0  0  0  0  0  0  0
   -1.7168   -3.4540    0.4792 O   0  0  0  0  0  0  0  0  0  0  0  0
    1.1214    2.7606    0.2756 N   0  0  0  0  0  0  0  0  0  0  0  0
   -1.1516   -1.3153   -0.2233 N   0  0  0  0  0  0  0  0  0  0  0  0
   -0.4710    0.9627   -0.1353 C   0  0  0  0  0  0  0  0  0  0  0  0
   -0.2092   -0.3888   -0.8271 C   0  0  0  0  0  0  0  0  0  0  0  0
    0.3544    2.0891   -0.8192 C   0  0  0  0  0  0  0  0  0  0  0  0
    1.2242   -0.8343   -0.9733 C   0  0  0  0  0  0  0  0  0  0  0  0
    2.1631    0.3706   -1.1980 C   0  0  0  0  0  0  0  0  0  0  0  0
    1.3493    1.5192   -1.8599 C   0  0  0  0  0  0  0  0  0  0  0  0
   -0.1031    1.0719    1.3642 C   0  0  0  0  0  0  0  0  0  0  0  0
   -1.9893    0.8288   -0.1604 C   0  0  0  0  0  0  0  0  0  0  0  0
    0.3733    2.5011    1.5063 C   0  0  0  0  0  0  0  0  0  0  0  0
    1.5497   -1.8397    0.1218 C   0  0  0  0  0  0  0  0  0  0  0  0
    2.8115    0.8716    0.0696 C   0  0  0  0  0  0  0  0  0  0  0  0
    2.5416    2.3352    0.3784 C   0  0  0  0  0  0  0  0  0  0  0  0
   -2.3288   -0.5539   -0.0588 C   0  0  0  0  0  0  0  0  0  0  0  0
    0.5939   -3.0337   -0.0620 C   0  0  0  0  0  0  0  0  0  0  0  0
   -0.8862   -2.6331    0.0923 C   0  0  0  0  0  0  0  0  0  0  0  0
    3.5460    0.0901    0.8849 C   0  0  0  0  0  0  0  0  0  0  0  0
   -2.9641    1.8044   -0.0978 C   0  0  0  0  0  0  0  0  0  0  0  0
    3.7917   -1.4028    0.8064 C   0  0  0  0  0  0  0  0  0  0  0  0
   -3.6254   -0.9695    0.1577 C   0  0  0  0  0  0  0  0  0  0  0  0
   -4.2860    1.3872    0.0817 C   0  0  0  0  0  0  0  0  0  0  0  0
   -4.6100    0.0212    0.2180 C   0  0  0  0  0  0  0  0  0  0  0  0
  1 14  1  0
  1 22  1  0
  2 19  2  0
  3  7  1  0
  3 13  1  0
  3 16  1  0
  4  6  1  0
  4 17  1  0
  4 19  1  0
  5  6  1  0
  5  7  1  0
  5 11  1  0
  5 12  1  0
  6  8  1  0
  7 10  1  0
  8  9  1  0
  8 14  1  0
  9 10  1  0
  9 15  1  0
 11 13  1  0
 12 17  2  0
 12 21  1  0
 14 18  1  0
 15 16  1  0
 15 20  2  0
 17 23  1  0
 18 19  1  0
 20 22  1  0
 21 24  2  0
 23 25  2  0
 24 25  1  0
M  END
>  <PUBCHEM_COMPOUND_CID>  (1) 
5979

>  <PUBCHEM_CONFORMER_RMSD>  (1) 
0.6

>  <PUBCHEM_CONFORMER_DIVERSEORDER>  (1) 
1

>  <PUBCHEM_MMFF94_PARTIAL_CHARGES>  (1) 
27
1 -0.56
12 -0.14
13 0.27
14 0.28
15 -0.28
16 0.41
17 0.12
18 0.06
19 0.57
2 -0.57
20 -0.29
21 -0.15
22 0.42
23 -0.15
24 -0.15
25 -0.15
3 -0.81
4 -0.48
41 0.15
42 0.15
45 0.15
46 0.15
47 0.15
5 0.14
6 0.3
7 0.27
9 0.14

>  <PUBCHEM_EFFECTIVE_ROTOR_COUNT>  (1) 
1.4

>  <PUBCHEM_PHARMACOPHORE_FEATURES>  (1) 
10
1 1 acceptor
1 2 acceptor
1 3 cation
5 3 5 7 11 13 rings
5 4 5 6 12 17 rings
6 12 17 21 23 24 25 rings
6 3 7 9 10 15 16 rings
6 4 6 8 14 18 19 rings
6 5 6 7 8 9 10 rings
7 1 8 9 14 15 20 22 rings

>  <PUBCHEM_HEAVY_ATOM_COUNT>  (1) 
25

>  <PUBCHEM_ATOM_DEF_STEREO_COUNT>  (1) 
4

>  <PUBCHEM_ATOM_UDEF_STEREO_COUNT>  (1) 
2

>  <PUBCHEM_BOND_DEF_STEREO_COUNT>  (1) 
0

>  <PUBCHEM_BOND_UDEF_STEREO_COUNT>  (1) 
0

>  <PUBCHEM_ISOTOPIC_ATOM_COUNT>  (1) 
0

>  <PUBCHEM_COMPONENT_COUNT>  (1) 
1

>  <PUBCHEM_CACTVS_TAUTO_COUNT>  (1) 
1

>  <PUBCHEM_CONFORMER_ID>  (1) 
0000175B00000001

>  <PUBCHEM_MMFF94_ENERGY>  (1) 
128.6876

>  <PUBCHEM_FEATURE_SELFOVERLAP>  (1) 
52.869

>  <PUBCHEM_SHAPE_FINGERPRINT>  (1) 
10616163 171 18120938574878780171
10759866 29 18042979846464117660
10863032 1 18265329693492674888
10948715 1 18125438854897753704
10967382 1 18410856529670158999
1100329 8 18410290289835469370
11112241 14 16627967798452798928
11370993 70 18410568509363781773
11578080 2 17460005510031648452
12011746 2 18341333284691848382
12035759 4 18118715169695211260
12592029 89 18409456869027690265
12633257 1 18337934767169891610
12788726 201 17845945043527010816
12930653 34 17765702912491136784
13132413 78 18270393876435651869
13140716 1 18051133889088448371
14178342 30 17975965785155838376
14223421 5 18052259784373152431
14787075 74 18201707457841188137
14790565 3 18048037656193202508
16945 1 18337398260823689773
1813 80 17240476975654246508
19591789 44 18410292540740937907
20028762 73 18272928341428654055
20600515 1 18409168792617660908
20691752 17 17603583032684426495
20905425 154 17908996743747776414
21421861 104 18198925637842041889
23184049 59 18335697204687592870
2334 1 18338804420469011487
23419403 2 18122033469775877108
23558518 356 17973158714769489411
23559900 14 18201450168463729228
2748010 2 18264777558145598879
335352 9 18338797814598268439
350125 39 18265336290741873967
392239 28 18129089044348985746
394222 165 17460058329708135932
484985 159 14500284829676107162
484989 97 18335984276782741447
5104073 3 18409738348526462273
6443956 14 18194122906453060237
7364860 26 18412546474926360119

>  <PUBCHEM_SHAPE_MULTIPOLES>  (1) 
492.79
6.22
3.52
1.16
4.01
1.49
-0.12
-0.04
1
-0.59
0.5
-0.6
-0.53
-0.05

>  <PUBCHEM_SHAPE_SELFOVERLAP>  (1) 
1135.306

>  <PUBCHEM_SHAPE_VOLUME>  (1) 
247.5

>  <PUBCHEM_COORDINATE_TYPE>  (1) 
2
5
10

$$$$
