598
     RDKit          3D

  7  6  0  0  0  0  0  0  0  0999 V2000
   -1.0534    0.1021    0.0185 S   0  0  0  0  0  0  0  0  0  0  0  0
    3.2874   -0.2487    0.0009 S   0  0  0  0  0  0  0  0  0  0  0  0
   -1.8861   -1.2779   -0.2301 O   0  0  0  0  0  0  0  0  0  0  0  0
   -1.2231    0.9647   -1.1359 O   0  0  0  0  0  0  0  0  0  0  0  0
   -1.3213    0.5727    1.3650 O   0  0  0  0  0  0  0  0  0  0  0  0
    0.5677   -0.5985   -0.0252 C   0  0  0  0  0  0  0  0  0  0  0  0
    1.6289    0.4856    0.0069 C   0  0  0  0  0  0  0  0  0  0  0  0
  1  3  1  0
  1  4  2  0
  1  5  2  0
  1  6  1  0
  2  7  1  0
  6  7  1  0
M  END
>  <PUBCHEM_COMPOUND_CID>  (1) 
598

>  <PUBCHEM_CONFORMER_RMSD>  (1) 
0.4

>  <PUBCHEM_CONFORMER_DIVERSEORDER>  (1) 
1
2
3

>  <PUBCHEM_MMFF94_PARTIAL_CHARGES>  (1) 
9
1 1.38
12 0.5
13 0.18
2 -0.41
3 -0.68
4 -0.65
5 -0.65
6 0.11
7 0.23

>  <PUBCHEM_EFFECTIVE_ROTOR_COUNT>  (1) 
2

>  <PUBCHEM_PHARMACOPHORE_FEATURES>  (1) 
4
1 3 acceptor
1 4 acceptor
1 5 acceptor
4 1 3 4 5 anion

>  <PUBCHEM_HEAVY_ATOM_COUNT>  (1) 
7

>  <PUBCHEM_ATOM_DEF_STEREO_COUNT>  (1) 
0

>  <PUBCHEM_ATOM_UDEF_STEREO_COUNT>  (1) 
0

>  <PUBCHEM_BOND_DEF_STEREO_COUNT>  (1) 
0

>  <PUBCHEM_BOND_UDEF_STEREO_COUNT>  (1) 
0

>  <PUBCHEM_ISOTOPIC_ATOM_COUNT>  (1) 
0

>  <PUBCHEM_COMPONENT_COUNT>  (1) 
1

>  <PUBCHEM_CACTVS_TAUTO_COUNT>  (1) 
1

>  <PUBCHEM_CONFORMER_ID>  (1) 
0000025600000001

>  <PUBCHEM_MMFF94_ENERGY>  (1) 
3.9002

>  <PUBCHEM_FEATURE_SELFOVERLAP>  (1) 
20.351

>  <PUBCHEM_SHAPE_FINGERPRINT>  (1) 
12932764 1 18260270729124535306
14390081 3 17458059365992327508
16714656 1 18260266373510881966
24536 1 17917989447487542278
29004967 10 16558757836119005862
3248919 1 17917707977296383406
5084963 1 18409445929545565826
5460574 1 9079119960129920502
5943 1 15438127772649592801

>  <PUBCHEM_SHAPE_MULTIPOLES>  (1) 
134.15
3.91
1.02
0.95
3.48
0.15
-0.11
0.4
0
-0.41
0.1
-0.45
-0.24
-0.03

>  <PUBCHEM_SHAPE_SELFOVERLAP>  (1) 
223.043

>  <PUBCHEM_SHAPE_VOLUME>  (1) 
93.1

>  <PUBCHEM_COORDINATE_TYPE>  (1) 
2
5
10

$$$$
