6020
     RDKit          3D

 21 23  0  0  1  0  0  0  0  0999 V2000
    2.3988    0.4526    0.9803 O   0  0  0  0  0  0  0  0  0  0  0  0
    2.7503   -2.5095   -0.2182 O   0  0  0  0  0  0  0  0  0  0  0  0
    4.5598    2.2264    1.3866 O   0  0  0  0  0  0  0  0  0  0  0  0
    0.1979   -0.0127    0.2261 N   0  0  0  0  0  0  0  0  0  0  0  0
    4.3390   -0.8560   -1.8282 N   0  0  0  0  0  0  0  0  0  0  0  0
   -1.3150    1.4730   -0.4608 N   0  0  0  0  0  0  0  0  0  0  0  0
   -1.2716   -1.8320    0.8825 N   0  0  0  0  0  0  0  0  0  0  0  0
   -4.2918    0.8583   -0.3807 N   0  0  0  0  0  0  0  0  0  0  0  0
   -3.6144   -1.2543    0.5168 N   0  0  0  0  0  0  0  0  0  0  0  0
    3.2236   -0.2795   -1.0981 C   0  0  0  0  0  0  0  0  0  0  0  0
    2.1670   -1.2847   -0.6612 C   0  0  0  0  0  0  0  0  0  0  0  0
    1.5078   -0.5902    0.5333 C   0  0  0  0  0  0  0  0  0  0  0  0
    3.6219    0.3593    0.2275 C   0  0  0  0  0  0  0  0  0  0  0  0
    4.2452    1.7374    0.0929 C   0  0  0  0  0  0  0  0  0  0  0  0
   -1.0197   -0.6062    0.3989 C   0  0  0  0  0  0  0  0  0  0  0  0
   -0.0313    1.2342   -0.2917 C   0  0  0  0  0  0  0  0  0  0  0  0
   -1.9445    0.3309   -0.0332 C   0  0  0  0  0  0  0  0  0  0  0  0
   -3.2862   -0.0301    0.0380 C   0  0  0  0  0  0  0  0  0  0  0  0
   -2.6017   -2.0672    0.9036 C   0  0  0  0  0  0  0  0  0  0  0  0
   -4.0989    2.2935   -0.2786 C   0  0  0  0  0  0  0  0  0  0  0  0
   -5.5362    0.3568   -0.9358 C   0  0  0  0  0  0  0  0  0  0  0  0
  1 12  1  0
  1 13  1  0
  2 11  1  0
  3 14  1  0
  4 12  1  0
  4 15  1  0
  4 16  1  0
  5 10  1  0
  6 16  2  0
  6 17  1  0
  7 15  1  0
  7 19  2  0
  8 18  1  0
  8 20  1  0
  8 21  1  0
  9 18  2  0
  9 19  1  0
 10 11  1  0
 10 13  1  0
 11 12  1  0
 13 14  1  0
 15 17  2  0
 17 18  1  0
M  END
>  <PUBCHEM_COMPOUND_CID>  (1) 
6020

>  <PUBCHEM_CONFORMER_RMSD>  (1) 
0.6

>  <PUBCHEM_CONFORMER_DIVERSEORDER>  (1) 
1
20
25
32
4
22
8
12
7
29
19
13
14
10
33
11
28
18
31
26
3
30
16
5
23
6
2
24
17
21
15
9
27

>  <PUBCHEM_MMFF94_PARTIAL_CHARGES>  (1) 
27
1 -0.56
10 0.27
11 0.28
12 0.54
13 0.28
14 0.28
15 0.11
16 0.04
17 0.23
18 0.41
19 0.47
2 -0.68
20 0.37
21 0.37
28 0.36
29 0.36
3 -0.68
30 0.4
31 0.15
32 0.4
33 0.15
4 0.05
5 -0.99
6 -0.57
7 -0.57
8 -0.84
9 -0.62

>  <PUBCHEM_EFFECTIVE_ROTOR_COUNT>  (1) 
4

>  <PUBCHEM_PHARMACOPHORE_FEATURES>  (1) 
13
1 1 acceptor
1 2 acceptor
1 2 donor
1 3 acceptor
1 3 donor
1 5 cation
1 5 donor
3 4 6 16 cation
3 7 9 19 cation
3 8 9 18 cation
5 1 10 11 12 13 rings
5 4 6 15 16 17 rings
6 7 9 15 17 18 19 rings

>  <PUBCHEM_HEAVY_ATOM_COUNT>  (1) 
21

>  <PUBCHEM_ATOM_DEF_STEREO_COUNT>  (1) 
4

>  <PUBCHEM_ATOM_UDEF_STEREO_COUNT>  (1) 
0

>  <PUBCHEM_BOND_DEF_STEREO_COUNT>  (1) 
0

>  <PUBCHEM_BOND_UDEF_STEREO_COUNT>  (1) 
0

>  <PUBCHEM_ISOTOPIC_ATOM_COUNT>  (1) 
0

>  <PUBCHEM_COMPONENT_COUNT>  (1) 
1

>  <PUBCHEM_CACTVS_TAUTO_COUNT>  (1) 
1

>  <PUBCHEM_CONFORMER_ID>  (1) 
0000178400000001

>  <PUBCHEM_MMFF94_ENERGY>  (1) 
55.2558

>  <PUBCHEM_FEATURE_SELFOVERLAP>  (1) 
66.223

>  <PUBCHEM_SHAPE_FINGERPRINT>  (1) 
10319926 262 18263064639911016536
10498660 4 18261115174896527053
10608611 8 18410856559829843176
11132069 177 18259704527237487537
11543360 7 17489579078536532661
12173636 292 18187642454028516853
12236239 1 16588023532915387522
12403259 415 18270685397984634592
12916748 109 18333732403869637913
13214271 11 18337385062373299711
13544592 145 18339086977672044142
14790565 3 18119252758031013357
15219456 202 18341617039969177938
15375358 24 18410290336931864322
17980427 23 17532368858633457236
18186145 218 18342465798331310177
18222031 100 13326565268334498777
19784866 240 15769500811689966886
200 152 16916786245267516847
20279233 1 18411139138502418098
20510252 161 18411139121839611393
20645477 56 18259987063503636973
20645477 70 17703792492264267390
20871999 31 18114473326675972287
21452121 103 18411972556037869696
21859007 373 17025691686603671892
22182313 1 18339376260788736850
23402539 116 18187076291355330582
23557571 272 18263372532709084194
23559900 14 18335426746898069622
34797466 226 17917993897374711917
34934 24 18334568070844456187
3545911 37 18335424560137191068
474 4 15792879877765662636
495365 180 17988067920622061802
5104073 3 18334858303190789067
59755656 215 18410012105594562918
633830 44 18268701706919161213
9709674 26 18410577313851592231

>  <PUBCHEM_SHAPE_MULTIPOLES>  (1) 
384.68
10.38
2.27
1.1
1.95
0.06
-0.16
-3.61
-1.73
-0.15
0.38
-0.93
0.08
1.85

>  <PUBCHEM_SHAPE_SELFOVERLAP>  (1) 
824.059

>  <PUBCHEM_SHAPE_VOLUME>  (1) 
211

>  <PUBCHEM_COORDINATE_TYPE>  (1) 
2
5
10

$$$$
