6046
     RDKit          3D

  8  8  0  0  0  0  0  0  0  0999 V2000
   -2.1572    0.1619   -0.1336 O   0  0  0  0  0  0  0  0  0  0  0  0
    2.6755    0.2762    0.4210 O   0  0  0  0  0  0  0  0  0  0  0  0
    0.6650   -0.1505    0.0694 N   0  0  0  0  0  0  0  0  0  0  0  0
    1.9022   -0.3314   -0.3260 N   0  0  0  0  0  0  0  0  0  0  0  0
   -0.2132   -1.2859   -0.2406 C   0  0  0  0  0  0  0  0  0  0  0  0
    0.0625    1.1162   -0.3705 C   0  0  0  0  0  0  0  0  0  0  0  0
   -1.6004   -1.0581    0.3546 C   0  0  0  0  0  0  0  0  0  0  0  0
   -1.3344    1.2714    0.2258 C   0  0  0  0  0  0  0  0  0  0  0  0
  1  7  1  0
  1  8  1  0
  2  4  2  0
  3  4  1  0
  3  5  1  0
  3  6  1  0
  5  7  1  0
  6  8  1  0
M  END
>  <PUBCHEM_COMPOUND_CID>  (1) 
6046

>  <PUBCHEM_CONFORMER_RMSD>  (1) 
0.4

>  <PUBCHEM_CONFORMER_DIVERSEORDER>  (1) 
1
10
12
8
2
9
5
4
6
7
3
11

>  <PUBCHEM_MMFF94_PARTIAL_CHARGES>  (1) 
8
1 -0.56
2 -0.16
3 -0.36
4 -0.01
5 0.27
6 0.27
7 0.28
8 0.28

>  <PUBCHEM_EFFECTIVE_ROTOR_COUNT>  (1) 
2.2

>  <PUBCHEM_PHARMACOPHORE_FEATURES>  (1) 
2
1 1 acceptor
6 1 3 5 6 7 8 rings

>  <PUBCHEM_HEAVY_ATOM_COUNT>  (1) 
8

>  <PUBCHEM_ATOM_DEF_STEREO_COUNT>  (1) 
0

>  <PUBCHEM_ATOM_UDEF_STEREO_COUNT>  (1) 
0

>  <PUBCHEM_BOND_DEF_STEREO_COUNT>  (1) 
0

>  <PUBCHEM_BOND_UDEF_STEREO_COUNT>  (1) 
0

>  <PUBCHEM_ISOTOPIC_ATOM_COUNT>  (1) 
0

>  <PUBCHEM_COMPONENT_COUNT>  (1) 
1

>  <PUBCHEM_CACTVS_TAUTO_COUNT>  (1) 
1

>  <PUBCHEM_CONFORMER_ID>  (1) 
0000179E00000001

>  <PUBCHEM_MMFF94_ENERGY>  (1) 
13.3812

>  <PUBCHEM_FEATURE_SELFOVERLAP>  (1) 
10.148

>  <PUBCHEM_SHAPE_FINGERPRINT>  (1) 
10857977 72 18338508759041060568
16714656 1 18410295808714918111
18185500 45 18261957460922467511
21040471 1 18193001421730250429
23552423 10 18187373090696465998
29004967 10 18409737295515565122
369184 2 17312814987668950272

>  <PUBCHEM_SHAPE_MULTIPOLES>  (1) 
142.94
2.85
1.4
0.65
1.41
0.03
0
0.05
0.33
-0.52
-0.02
0.01
0.01
0.07

>  <PUBCHEM_SHAPE_SELFOVERLAP>  (1) 
277.158

>  <PUBCHEM_SHAPE_VOLUME>  (1) 
87

>  <PUBCHEM_COORDINATE_TYPE>  (1) 
2
5
10

$$$$
