6056
     RDKit          3D

 10 10  0  0  0  0  0  0  0  0999 V2000
   -2.7231    1.7787   -0.1169 N   0  0  0  0  0  0  0  0  0  0  0  0
    1.8060    0.0019    0.6783 C   0  0  0  0  0  0  0  0  0  0  0  0
    0.3674   -0.2119    0.3494 C   0  0  0  0  0  0  0  0  0  0  0  0
    2.6632    0.2211   -0.5763 C   0  0  0  0  0  0  0  0  0  0  0  0
   -0.4999    0.8778    0.2707 C   0  0  0  0  0  0  0  0  0  0  0  0
   -0.1109   -1.5020    0.1197 C   0  0  0  0  0  0  0  0  0  0  0  0
    4.1225    0.4725   -0.2314 C   0  0  0  0  0  0  0  0  0  0  0  0
   -1.8455    0.6773   -0.0376 C   0  0  0  0  0  0  0  0  0  0  0  0
   -1.4563   -1.7025   -0.1886 C   0  0  0  0  0  0  0  0  0  0  0  0
   -2.3235   -0.6129   -0.2674 C   0  0  0  0  0  0  0  0  0  0  0  0
  1  8  1  0
  2  3  1  0
  2  4  1  0
  3  5  2  0
  3  6  1  0
  4  7  1  0
  5  8  1  0
  6  9  2  0
  8 10  2  0
  9 10  1  0
M  END
>  <PUBCHEM_COMPOUND_CID>  (1) 
6056

>  <PUBCHEM_CONFORMER_RMSD>  (1) 
0.4

>  <PUBCHEM_CONFORMER_DIVERSEORDER>  (1) 
1
3
5
7
6
4
8
2

>  <PUBCHEM_MMFF94_PARTIAL_CHARGES>  (1) 
14
1 -0.9
10 -0.15
15 0.15
16 0.15
2 0.14
20 0.15
21 0.15
22 0.4
23 0.4
3 -0.14
5 -0.15
6 -0.15
8 0.1
9 -0.15

>  <PUBCHEM_EFFECTIVE_ROTOR_COUNT>  (1) 
2

>  <PUBCHEM_PHARMACOPHORE_FEATURES>  (1) 
4
1 1 cation
1 1 donor
1 7 hydrophobe
6 3 5 6 8 9 10 rings

>  <PUBCHEM_HEAVY_ATOM_COUNT>  (1) 
10

>  <PUBCHEM_ATOM_DEF_STEREO_COUNT>  (1) 
0

>  <PUBCHEM_ATOM_UDEF_STEREO_COUNT>  (1) 
0

>  <PUBCHEM_BOND_DEF_STEREO_COUNT>  (1) 
0

>  <PUBCHEM_BOND_UDEF_STEREO_COUNT>  (1) 
0

>  <PUBCHEM_ISOTOPIC_ATOM_COUNT>  (1) 
0

>  <PUBCHEM_COMPONENT_COUNT>  (1) 
1

>  <PUBCHEM_CACTVS_TAUTO_COUNT>  (1) 
1

>  <PUBCHEM_CONFORMER_ID>  (1) 
000017A800000001

>  <PUBCHEM_MMFF94_ENERGY>  (1) 
28.0759

>  <PUBCHEM_FEATURE_SELFOVERLAP>  (1) 
20.297

>  <PUBCHEM_SHAPE_FINGERPRINT>  (1) 
11206711 2 18340471348990049277
12138202 97 18201999910743868798
12716758 59 18342454859192155458
12897270 3 18341331192773756206
12932764 1 17917425466958488242
13024252 1 17822010960138322043
14325111 11 18409730638627349624
15775835 57 18187647972850761572
16945 1 18339911718877821771
20201158 50 17775291573187257462
20645464 45 17774139314844541026
20645477 56 18411984663234490496
20653085 51 18261688007849355688
20871998 184 18200318852097048703
21040471 1 18340475661015992379
23235685 24 18340201903942629097
23402539 116 18341040912929628775
23552423 10 18117835736069839458
23559900 14 18202563957047891890
6333449 129 18343020012352971184

>  <PUBCHEM_SHAPE_MULTIPOLES>  (1) 
200.81
5.15
1.57
0.73
5.21
0.11
-0.02
-1.45
0.87
-1.38
0.05
0.19
0.01
-0.09

>  <PUBCHEM_SHAPE_SELFOVERLAP>  (1) 
404.848

>  <PUBCHEM_SHAPE_VOLUME>  (1) 
118.6

>  <PUBCHEM_COORDINATE_TYPE>  (1) 
2
5
10

$$$$
