6074
     RDKit          3D

 22 24  0  0  1  0  0  0  0  0999 V2000
    3.1661    0.2482   -1.0763 S   0  0  0  0  0  0  0  0  0  0  0  0
   -3.3060    0.1582   -0.1566 N   0  0  0  0  0  0  0  0  0  0  0  0
    0.4277   -0.0542    0.3639 N   0  0  0  0  0  0  0  0  0  0  0  0
   -1.8678    0.3409   -0.4993 C   0  0  0  0  0  0  0  0  0  0  0  0
   -1.0070   -0.2094    0.6368 C   0  0  0  0  0  0  0  0  0  0  0  0
   -3.6561   -1.3319   -0.0739 C   0  0  0  0  0  0  0  0  0  0  0  0
   -3.6245    0.8037    1.1968 C   0  0  0  0  0  0  0  0  0  0  0  0
   -4.2002    0.8047   -1.2209 C   0  0  0  0  0  0  0  0  0  0  0  0
   -1.6034   -0.3156   -1.8475 C   0  0  0  0  0  0  0  0  0  0  0  0
   -5.1284   -1.4810    0.2417 C   0  0  0  0  0  0  0  0  0  0  0  0
    1.2054   -1.2359    0.2669 C   0  0  0  0  0  0  0  0  0  0  0  0
    0.9380    1.2663    0.2841 C   0  0  0  0  0  0  0  0  0  0  0  0
    2.4752   -1.2214   -0.3433 C   0  0  0  0  0  0  0  0  0  0  0  0
    2.1816    1.5286   -0.3241 C   0  0  0  0  0  0  0  0  0  0  0  0
    0.7664   -2.4661    0.8035 C   0  0  0  0  0  0  0  0  0  0  0  0
    0.2497    2.3687    0.8363 C   0  0  0  0  0  0  0  0  0  0  0  0
    3.2454   -2.3948   -0.4304 C   0  0  0  0  0  0  0  0  0  0  0  0
    2.6867    2.8391   -0.3937 C   0  0  0  0  0  0  0  0  0  0  0  0
    1.5380   -3.6282    0.7188 C   0  0  0  0  0  0  0  0  0  0  0  0
    0.7586    3.6686    0.7688 C   0  0  0  0  0  0  0  0  0  0  0  0
    2.7776   -3.5932    0.0982 C   0  0  0  0  0  0  0  0  0  0  0  0
    1.9770    3.9045    0.1502 C   0  0  0  0  0  0  0  0  0  0  0  0
  1 13  1  0
  1 14  1  0
  2  4  1  0
  2  6  1  0
  2  7  1  0
  2  8  1  0
  3  5  1  0
  3 11  1  0
  3 12  1  0
  4  5  1  0
  4  9  1  0
  6 10  1  0
 11 13  2  0
 11 15  1  0
 12 14  2  0
 12 16  1  0
 13 17  1  0
 14 18  1  0
 15 19  2  0
 16 20  2  0
 17 21  2  0
 18 22  2  0
 19 21  1  0
 20 22  1  0
M  CHG  1   2   1
M  END
>  <PUBCHEM_COMPOUND_CID>  (1) 
6074

>  <PUBCHEM_CONFORMER_RMSD>  (1) 
0.8

>  <PUBCHEM_CONFORMER_DIVERSEORDER>  (1) 
3
1
2

>  <PUBCHEM_MMFF94_PARTIAL_CHARGES>  (1) 
28
1 -0.2
11 0.1
12 0.1
13 0.1
14 0.1
15 -0.15
16 -0.15
17 -0.15
18 -0.15
19 -0.15
2 -1.01
20 -0.15
21 -0.15
22 -0.15
3 -0.57
4 0.5
40 0.15
41 0.15
42 0.15
43 0.15
44 0.15
45 0.15
46 0.15
47 0.15
5 0.37
6 0.5
7 0.5
8 0.5

>  <PUBCHEM_EFFECTIVE_ROTOR_COUNT>  (1) 
4.4

>  <PUBCHEM_PHARMACOPHORE_FEATURES>  (1) 
5
1 2 cation
1 3 cation
6 1 3 11 12 13 14 rings
6 11 13 15 17 19 21 rings
6 12 14 16 18 20 22 rings

>  <PUBCHEM_HEAVY_ATOM_COUNT>  (1) 
22

>  <PUBCHEM_ATOM_DEF_STEREO_COUNT>  (1) 
0

>  <PUBCHEM_ATOM_UDEF_STEREO_COUNT>  (1) 
1

>  <PUBCHEM_BOND_DEF_STEREO_COUNT>  (1) 
0

>  <PUBCHEM_BOND_UDEF_STEREO_COUNT>  (1) 
0

>  <PUBCHEM_ISOTOPIC_ATOM_COUNT>  (1) 
0

>  <PUBCHEM_COMPONENT_COUNT>  (1) 
1

>  <PUBCHEM_CACTVS_TAUTO_COUNT>  (1) 
1

>  <PUBCHEM_CONFORMER_ID>  (1) 
000017BA00000003

>  <PUBCHEM_MMFF94_ENERGY>  (1) 
101.6506

>  <PUBCHEM_FEATURE_SELFOVERLAP>  (1) 
25.402

>  <PUBCHEM_SHAPE_FINGERPRINT>  (1) 
10165383 225 18044390545436327348
10411042 1 18266743467651204554
10693767 8 18130516288115572142
1100329 8 18338515374087339682
11045515 52 18044381513246242852
11265709 11 18122626055008545026
11578080 2 18040426673370003309
12107183 9 18126298437373752281
12553582 1 18195249901608445771
12730499 353 18191876828005214419
12788726 201 17329414057126275163
13004483 165 17834096559822356250
13009979 54 17702957919873178371
13134695 92 18267009579392052748
13140716 1 18196085779669489056
13533116 47 18411982494993385275
13583140 156 18410289238148256911
13681431 1 18266436759725130072
138480 1 18410856521180295306
13911987 19 18189638119526329718
13955234 65 18339643451173375651
14866123 147 16320051293275830475
14955137 171 18337942459546249386
15042514 8 17330000088202218784
15502722 9 18410290358591310517
16087824 20 17473549049487386673
1813 80 17986395485926512215
18785283 64 18262238944584194840
19591789 44 18050009092719246810
19930381 70 18337675333833526849
21041028 32 18122628253820648076
21304303 282 16615552206971546332
21452121 199 18192416494682493834
21524375 3 17900533777047455056
22112679 90 17911534098904627544
221490 88 18335708255971196731
2255824 54 18412825823683275550
23419403 2 17318404832350433024
23557571 272 17833806306364977098
23558518 356 17334205122983004580
23559900 14 18337377272072952971
23566358 27 18340766065335726351
23598288 3 17982168916058157974
23598291 2 18130799927555092305
238 59 18265610055898801979
25 1 18268151048719340940
2748010 2 17834979824848348220
3091708 16 9287493927489674184
314173 41 18339645512562907727
3323516 105 18336270127776647575
350125 39 18048038763840356578
352729 6 17403171994283305864
458136 41 18192722352209506257
474 4 18197214960720595824
5845 1 11935365145333428312
6287921 2 18042975457086506877
6438718 38 17121962614049823876
6442390 28 17832990820707914963
6443956 14 18336826386276406332
7164475 11 17762619491208287486
7364860 26 18411134766167538963
7471813 234 18196077851217850398
81228 2 17401739953391820976
84936 182 18271247247556191672

>  <PUBCHEM_SHAPE_MULTIPOLES>  (1) 
446.64
7.25
4.89
1.15
9.95
0.79
0.28
-2.35
1.21
-5.87
-1.32
0.49
0.09
-0.08

>  <PUBCHEM_SHAPE_SELFOVERLAP>  (1) 
932.679

>  <PUBCHEM_SHAPE_VOLUME>  (1) 
256.3

>  <PUBCHEM_COORDINATE_TYPE>  (1) 
2
5
10

$$$$
