6075
     RDKit          3D

 22 25  0  0  1  0  0  0  0  0999 V2000
    2.5093   -0.5576   -1.5859 S   0  0  0  0  0  0  0  0  0  0  0  0
   -3.1682    0.6013   -1.3642 N   0  0  0  0  0  0  0  0  0  0  0  0
    0.5278   -0.0274    0.7501 N   0  0  0  0  0  0  0  0  0  0  0  0
   -1.9476    0.0479    0.7259 C   0  0  0  0  0  0  0  0  0  0  0  0
   -3.1880    0.4045    1.5525 C   0  0  0  0  0  0  0  0  0  0  0  0
   -1.9352    0.8329   -0.5968 C   0  0  0  0  0  0  0  0  0  0  0  0
   -4.4526    0.2386    0.7166 C   0  0  0  0  0  0  0  0  0  0  0  0
   -0.6729    0.3121    1.5249 C   0  0  0  0  0  0  0  0  0  0  0  0
   -4.3544    1.0097   -0.5997 C   0  0  0  0  0  0  0  0  0  0  0  0
   -3.1157    1.3096   -2.6433 C   0  0  0  0  0  0  0  0  0  0  0  0
    1.4410    1.0201    0.4687 C   0  0  0  0  0  0  0  0  0  0  0  0
    0.7153   -1.3885    0.3997 C   0  0  0  0  0  0  0  0  0  0  0  0
    2.4039    0.8894   -0.5515 C   0  0  0  0  0  0  0  0  0  0  0  0
    1.6061   -1.7577   -0.6277 C   0  0  0  0  0  0  0  0  0  0  0  0
    1.4549    2.2201    1.2128 C   0  0  0  0  0  0  0  0  0  0  0  0
    0.0530   -2.4339    1.0798 C   0  0  0  0  0  0  0  0  0  0  0  0
    3.3123    1.9283   -0.8214 C   0  0  0  0  0  0  0  0  0  0  0  0
    1.7939   -3.1096   -0.9663 C   0  0  0  0  0  0  0  0  0  0  0  0
    2.3632    3.2477    0.9436 C   0  0  0  0  0  0  0  0  0  0  0  0
    0.2471   -3.7762    0.7426 C   0  0  0  0  0  0  0  0  0  0  0  0
    3.2909    3.1028   -0.0767 C   0  0  0  0  0  0  0  0  0  0  0  0
    1.1160   -4.1142   -0.2838 C   0  0  0  0  0  0  0  0  0  0  0  0
  1 13  1  0
  1 14  1  0
  2  6  1  0
  2  9  1  0
  2 10  1  0
  3  8  1  0
  3 11  1  0
  3 12  1  0
  4  5  1  0
  4  6  1  0
  4  8  1  0
  5  7  1  0
  7  9  1  0
 11 13  2  0
 11 15  1  0
 12 14  2  0
 12 16  1  0
 13 17  1  0
 14 18  1  0
 15 19  2  0
 16 20  2  0
 17 21  2  0
 18 22  2  0
 19 21  1  0
 20 22  1  0
M  END
>  <PUBCHEM_COMPOUND_CID>  (1) 
6075

>  <PUBCHEM_CONFORMER_RMSD>  (1) 
0.6

>  <PUBCHEM_CONFORMER_DIVERSEORDER>  (1) 
3
6
11
9
12
8
4
10
1
5
7
2

>  <PUBCHEM_MMFF94_PARTIAL_CHARGES>  (1) 
27
1 -0.2
10 0.27
11 0.1
12 0.1
13 0.1
14 0.1
15 -0.15
16 -0.15
17 -0.15
18 -0.15
19 -0.15
2 -0.81
20 -0.15
21 -0.15
22 -0.15
3 -0.57
37 0.15
38 0.15
39 0.15
40 0.15
41 0.15
42 0.15
43 0.15
44 0.15
6 0.27
8 0.37
9 0.27

>  <PUBCHEM_EFFECTIVE_ROTOR_COUNT>  (1) 
3.6

>  <PUBCHEM_PHARMACOPHORE_FEATURES>  (1) 
6
1 2 cation
1 3 cation
6 1 3 11 12 13 14 rings
6 11 13 15 17 19 21 rings
6 12 14 16 18 20 22 rings
6 2 4 5 6 7 9 rings

>  <PUBCHEM_HEAVY_ATOM_COUNT>  (1) 
22

>  <PUBCHEM_ATOM_DEF_STEREO_COUNT>  (1) 
0

>  <PUBCHEM_ATOM_UDEF_STEREO_COUNT>  (1) 
1

>  <PUBCHEM_BOND_DEF_STEREO_COUNT>  (1) 
0

>  <PUBCHEM_BOND_UDEF_STEREO_COUNT>  (1) 
0

>  <PUBCHEM_ISOTOPIC_ATOM_COUNT>  (1) 
0

>  <PUBCHEM_COMPONENT_COUNT>  (1) 
1

>  <PUBCHEM_CACTVS_TAUTO_COUNT>  (1) 
1

>  <PUBCHEM_CONFORMER_ID>  (1) 
000017BB00000003

>  <PUBCHEM_MMFF94_ENERGY>  (1) 
70.9631

>  <PUBCHEM_FEATURE_SELFOVERLAP>  (1) 
30.479

>  <PUBCHEM_SHAPE_FINGERPRINT>  (1) 
10165383 225 18046380592652114700
105312 117 18193846074811296236
10764073 3 16305651178580999304
10871710 139 16385387125824346460
11101153 10 17761787165792541326
11725454 13 17968377947864151424
121448 382 17912626192965614605
12160290 23 17691949879843678202
12539773 59 12286928817089986222
12553582 1 17763758589344065003
12643181 29 18269000951009492828
12730499 353 18337122232556451241
12788726 201 17255669224067504138
13004483 165 17330258481882807875
13134695 92 18049147874456626574
13149001 5 18126596559158463718
13533116 47 18340770335266084089
13681431 1 18122333580388318482
13911987 19 18047501970565556710
15131766 46 14578669172581702742
15502722 9 18410855426047991793
1813 80 17556586439295293535
18915476 22 18408881811524732837
21304303 282 17187227820372518500
21524375 3 18262517138305942970
22112679 90 17482848765677751682
2255824 54 18271527502893766347
22907989 373 17474675430160716516
23114952 82 18189333481342500893
23419403 2 17322452181380258322
23557571 272 17313686901038545425
23598291 2 17702121174476700273
238 59 18337095792326339831
25 1 18342468074759312312
2748010 2 17909583823270324698
4409770 3 17550376784489956450
495365 180 18262784203942026197
59025328 239 17046495481952257847
621550 34 18260552234298087201
633830 44 18130802182260221145
6442390 28 18194410106884972571
7399639 24 18260550060949722313
7471813 234 17980198578452806238
81228 2 17398390218155884818
90316 7 16899335136346357698

>  <PUBCHEM_SHAPE_MULTIPOLES>  (1) 
446.64
6.46
4.61
1.77
6.97
4.01
-0.73
-5.1
-1.76
-5
0.49
1.17
-0.5
1.33

>  <PUBCHEM_SHAPE_SELFOVERLAP>  (1) 
950.515

>  <PUBCHEM_SHAPE_VOLUME>  (1) 
248.5

>  <PUBCHEM_COORDINATE_TYPE>  (1) 
2
5
10

$$$$
