6086
     RDKit          3D

 20 22  0  0  1  0  0  0  0  0999 V2000
    3.5483    1.4864   -1.3347 O   0  0  0  0  0  0  0  0  0  0  0  0
    4.0119    0.7302    1.2957 O   0  0  0  0  0  0  0  0  0  0  0  0
   -2.1589   -0.2139   -0.5635 N   0  0  0  0  0  0  0  0  0  0  0  0
   -1.0064   -2.2474   -0.1238 C   0  0  0  0  0  0  0  0  0  0  0  0
   -0.4025   -1.5316   -1.3588 C   0  0  0  0  0  0  0  0  0  0  0  0
   -2.2886   -1.4608    0.1939 C   0  0  0  0  0  0  0  0  0  0  0  0
   -1.5055   -0.5860   -1.8222 C   0  0  0  0  0  0  0  0  0  0  0  0
    0.0506   -2.2334    0.9984 C   0  0  0  0  0  0  0  0  0  0  0  0
    0.8033   -0.8379   -0.7919 C   0  0  0  0  0  0  0  0  0  0  0  0
    1.0400   -1.2183    0.5299 C   0  0  0  0  0  0  0  0  0  0  0  0
   -3.4371    0.4487   -0.7732 C   0  0  0  0  0  0  0  0  0  0  0  0
    1.6406    0.0655   -1.4306 C   0  0  0  0  0  0  0  0  0  0  0  0
    2.1134   -0.7040    1.2411 C   0  0  0  0  0  0  0  0  0  0  0  0
   -4.0559    0.8443    0.5664 C   0  0  0  0  0  0  0  0  0  0  0  0
    2.7200    0.5947   -0.7202 C   0  0  0  0  0  0  0  0  0  0  0  0
    2.9544    0.2130    0.6083 C   0  0  0  0  0  0  0  0  0  0  0  0
   -5.3913    1.5621    0.3677 C   0  0  0  0  0  0  0  0  0  0  0  0
   -6.0308    1.9277    1.6977 C   0  0  0  0  0  0  0  0  0  0  0  0
    3.2101    2.8668   -1.2221 C   0  0  0  0  0  0  0  0  0  0  0  0
    4.1843    0.2938    2.6420 C   0  0  0  0  0  0  0  0  0  0  0  0
  1 15  1  0
  1 19  1  0
  2 16  1  0
  2 20  1  0
  3  6  1  0
  3  7  1  0
  3 11  1  0
  4  5  1  0
  4  6  1  0
  4  8  1  0
  5  7  1  0
  5  9  1  0
  8 10  1  0
  9 10  2  0
  9 12  1  0
 10 13  1  0
 11 14  1  0
 12 15  2  0
 13 16  2  0
 14 17  1  0
 15 16  1  0
 17 18  1  0
M  END
>  <PUBCHEM_COMPOUND_CID>  (1) 
6086

>  <PUBCHEM_CONFORMER_RMSD>  (1) 
0.8

>  <PUBCHEM_CONFORMER_DIVERSEORDER>  (1) 
5
14
9
28
2
7
30
16
32
18
20
34
11
17
12
27
33
13
21
31
26
3
24
10
15
6
19
22
29
4
8
23
1
25

>  <PUBCHEM_MMFF94_PARTIAL_CHARGES>  (1) 
18
1 -0.36
10 -0.14
11 0.27
12 -0.15
13 -0.15
15 0.08
16 0.08
19 0.28
2 -0.36
20 0.28
3 -0.81
31 0.15
32 0.15
5 0.14
6 0.27
7 0.27
8 0.14
9 -0.14

>  <PUBCHEM_EFFECTIVE_ROTOR_COUNT>  (1) 
5.8

>  <PUBCHEM_PHARMACOPHORE_FEATURES>  (1) 
7
1 1 acceptor
1 18 hydrophobe
1 2 acceptor
1 3 cation
5 3 4 5 6 7 rings
5 4 5 8 9 10 rings
6 9 10 12 13 15 16 rings

>  <PUBCHEM_HEAVY_ATOM_COUNT>  (1) 
20

>  <PUBCHEM_ATOM_DEF_STEREO_COUNT>  (1) 
0

>  <PUBCHEM_ATOM_UDEF_STEREO_COUNT>  (1) 
2

>  <PUBCHEM_BOND_DEF_STEREO_COUNT>  (1) 
0

>  <PUBCHEM_BOND_UDEF_STEREO_COUNT>  (1) 
0

>  <PUBCHEM_ISOTOPIC_ATOM_COUNT>  (1) 
0

>  <PUBCHEM_COMPONENT_COUNT>  (1) 
1

>  <PUBCHEM_CACTVS_TAUTO_COUNT>  (1) 
1

>  <PUBCHEM_CONFORMER_ID>  (1) 
000017C600000005

>  <PUBCHEM_MMFF94_ENERGY>  (1) 
67.4878

>  <PUBCHEM_FEATURE_SELFOVERLAP>  (1) 
36.123

>  <PUBCHEM_SHAPE_FINGERPRINT>  (1) 
10042902 136 12468649287427260809
10498660 4 17275102795915250745
10756046 5 13254534070849229850
11796584 16 11169912801639750825
12390115 104 17317059253414475212
12403259 118 18261385638194593977
12633257 1 17748823016686314137
12788726 201 17978787144957462527
12892183 10 16153426138656578069
13103583 49 15503212250938372953
13140716 1 17386830868167389922
13257819 101 16486110947115151560
13583140 156 16443609226079146847
13955234 65 17772200700363652871
13965767 371 18270389474057224189
1420 369 12252192870268922337
14251740 57 13479433659894809737
14251764 30 15141797277161676410
14251764 38 17486186096953672945
14251764 75 18191886706256876781
14341114 328 18260554428868107049
14739800 52 17907002225861618808
14848178 5 13046238203607518305
14950920 106 16950562173321845305
15003188 33 13542198147146947193
15061688 2 17489294309014093842
15163728 17 17417243376850282720
15210252 30 17060338479348368289
15238133 3 18413670214501927016
15342168 16 18410581665291675877
15342816 4 8502654800678367900
15475509 8 18335711490771978710
17134984 74 10375281415772039297
1798214 20 10087635984047887393
18222031 100 11241978079231740009
193927 3 11314321516328520577
20567600 234 18113907053056089297
20723712 36 18261099760728367714
21756936 100 18191314973099765676
21864079 5 18265619964282949988
22849341 161 18040986299266351552
23557571 272 17059201729942658710
23559900 14 18271538502247171702
2748010 2 17102793836275428798
2838139 119 16771799260783333072
3009799 131 16056888992474229476
3472631 163 17489292097485945993
38570 142 17751383831197915676
427121 178 18263376815002819283
4463277 69 11170207487909392675
46194498 28 13686003268965495945
474 4 18339651053413169205
5104073 3 17822851008549404072
59682541 52 12319449932242266617
633830 44 18409452509066491158
76465 3 9151179714225227197
7808743 9 18339652247013469213
960060 61 11743832543795469433

>  <PUBCHEM_SHAPE_MULTIPOLES>  (1) 
394.87
9.94
2.44
2
11.88
0.41
-0.57
9.63
-5.16
0.31
0.19
-1.56
0.43
-1.87

>  <PUBCHEM_SHAPE_SELFOVERLAP>  (1) 
833.475

>  <PUBCHEM_SHAPE_VOLUME>  (1) 
228.1

>  <PUBCHEM_COORDINATE_TYPE>  (1) 
2
5
10

$$$$
