6095
     RDKit          3D

 29 32  0  0  0  0  0  0  0  0999 V2000
    8.7400   -0.4722   -0.7046 O   0  0  0  0  0  0  0  0  0  0  0  0
    2.5893    2.0382   -0.3158 O   0  0  0  0  0  0  0  0  0  0  0  0
    6.0599   -0.8988    0.1541 N   0  0  0  0  0  0  0  0  0  0  0  0
    2.5466    0.0776    0.9188 N   0  0  0  0  0  0  0  0  0  0  0  0
   -0.0401   -0.1222    0.1694 N   0  0  0  0  0  0  0  0  0  0  0  0
   -1.5856    2.1653   -0.0194 N   0  0  0  0  0  0  0  0  0  0  0  0
   -3.5106    0.8792   -0.0589 N   0  0  0  0  0  0  0  0  0  0  0  0
   -3.3980   -1.5131    0.0607 N   0  0  0  0  0  0  0  0  0  0  0  0
    0.3852    3.4912    0.0199 N   0  0  0  0  0  0  0  0  0  0  0  0
   -1.2943   -2.5766    0.2209 N   0  0  0  0  0  0  0  0  0  0  0  0
    6.6560    0.4444    0.1345 C   0  0  0  0  0  0  0  0  0  0  0  0
    6.6786   -1.7393   -0.8803 C   0  0  0  0  0  0  0  0  0  0  0  0
    4.6124   -0.8268   -0.0329 C   0  0  0  0  0  0  0  0  0  0  0  0
    8.1675    0.3432    0.3186 C   0  0  0  0  0  0  0  0  0  0  0  0
    8.1893   -1.7895   -0.6712 C   0  0  0  0  0  0  0  0  0  0  0  0
    3.9885   -0.0278    1.1040 C   0  0  0  0  0  0  0  0  0  0  0  0
    1.9747    1.1170    0.2153 C   0  0  0  0  0  0  0  0  0  0  0  0
    0.4912    1.0952    0.1392 C   0  0  0  0  0  0  0  0  0  0  0  0
   -0.2417    2.2260    0.0474 C   0  0  0  0  0  0  0  0  0  0  0  0
   -1.3839   -0.1811    0.1024 C   0  0  0  0  0  0  0  0  0  0  0  0
   -2.1763    0.9647    0.0068 C   0  0  0  0  0  0  0  0  0  0  0  0
   -2.0603   -1.3858    0.1244 C   0  0  0  0  0  0  0  0  0  0  0  0
   -4.0554   -0.3516   -0.0289 C   0  0  0  0  0  0  0  0  0  0  0  0
   -5.4910   -0.4232   -0.1005 C   0  0  0  0  0  0  0  0  0  0  0  0
   -6.2123    0.5570   -0.7902 C   0  0  0  0  0  0  0  0  0  0  0  0
   -6.1766   -1.4736    0.5185 C   0  0  0  0  0  0  0  0  0  0  0  0
   -7.6036    0.4877   -0.8600 C   0  0  0  0  0  0  0  0  0  0  0  0
   -7.5681   -1.5429    0.4485 C   0  0  0  0  0  0  0  0  0  0  0  0
   -8.2815   -0.5622   -0.2407 C   0  0  0  0  0  0  0  0  0  0  0  0
  1 14  1  0
  1 15  1  0
  2 17  2  0
  3 11  1  0
  3 12  1  0
  3 13  1  0
  4 16  1  0
  4 17  1  0
  5 18  2  0
  5 20  1  0
  6 19  2  0
  6 21  1  0
  7 21  1  0
  7 23  2  0
  8 22  2  0
  8 23  1  0
  9 19  1  0
 10 22  1  0
 11 14  1  0
 12 15  1  0
 13 16  1  0
 17 18  1  0
 18 19  1  0
 20 21  2  0
 20 22  1  0
 23 24  1  0
 24 25  2  0
 24 26  1  0
 25 27  1  0
 26 28  2  0
 27 29  2  0
 28 29  1  0
M  END
>  <PUBCHEM_COMPOUND_CID>  (1) 
6095

>  <PUBCHEM_CONFORMER_RMSD>  (1) 
0.8

>  <PUBCHEM_CONFORMER_DIVERSEORDER>  (1) 
1
44
35
11
29
46
23
14
24
49
5
30
33
52
39
22
9
8
25
7
34
16
15
42
10
12
40
27
18
21
2
4
43
32
20
6
45
28
51
31
26
17
3
41
37
38
47
19
36
13
48
50

>  <PUBCHEM_MMFF94_PARTIAL_CHARGES>  (1) 
38
1 -0.56
10 -0.9
11 0.27
12 0.27
13 0.27
14 0.28
15 0.28
16 0.3
17 0.54
18 0.4
19 0.41
2 -0.57
20 0.31
21 0.62
22 0.41
23 0.62
25 -0.15
26 -0.15
27 -0.15
28 -0.15
29 -0.15
3 -0.81
4 -0.73
42 0.37
43 0.4
44 0.4
45 0.15
46 0.15
47 0.4
48 0.4
49 0.15
5 -0.62
50 0.15
51 0.15
6 -0.62
7 -0.62
8 -0.62
9 -0.9

>  <PUBCHEM_EFFECTIVE_ROTOR_COUNT>  (1) 
7.2

>  <PUBCHEM_PHARMACOPHORE_FEATURES>  (1) 
15
1 1 acceptor
1 10 cation
1 10 donor
1 2 acceptor
1 3 cation
1 4 donor
1 5 acceptor
1 9 donor
3 6 7 21 cation
3 6 9 19 cation
3 7 8 23 cation
6 1 3 11 12 14 15 rings
6 24 25 26 27 28 29 rings
6 5 6 18 19 20 21 rings
6 7 8 20 21 22 23 rings

>  <PUBCHEM_HEAVY_ATOM_COUNT>  (1) 
29

>  <PUBCHEM_ATOM_DEF_STEREO_COUNT>  (1) 
0

>  <PUBCHEM_ATOM_UDEF_STEREO_COUNT>  (1) 
0

>  <PUBCHEM_BOND_DEF_STEREO_COUNT>  (1) 
0

>  <PUBCHEM_BOND_UDEF_STEREO_COUNT>  (1) 
0

>  <PUBCHEM_ISOTOPIC_ATOM_COUNT>  (1) 
0

>  <PUBCHEM_COMPONENT_COUNT>  (1) 
1

>  <PUBCHEM_CACTVS_TAUTO_COUNT>  (1) 
43

>  <PUBCHEM_CONFORMER_ID>  (1) 
000017CF00000001

>  <PUBCHEM_MMFF94_ENERGY>  (1) 
100.1922

>  <PUBCHEM_FEATURE_SELFOVERLAP>  (1) 
76.35

>  <PUBCHEM_SHAPE_FINGERPRINT>  (1) 
10050765 1 18048034365873025291
10076449 9 18040436590396598461
10299344 5 17703791418770499090
11408170 108 17346885520673404999
11524674 6 16487252175459405150
11578080 2 16372950142898647063
12592606 108 18341328981150844767
12645989 146 18339072805218743655
12838862 33 18337654382988416050
13617811 41 18260833687857932092
13673619 4 17988923354070455328
13685833 64 18342176670039415066
13885169 127 18341332206386395353
14117953 113 18343302565292802743
14216079 64 18343584023580351454
14251764 18 17775007890354568618
15198563 99 18261952929891227220
15301273 46 18131066030727656712
15849732 13 18411697703341670759
16087824 20 18336262328929084029
16728433 281 16227707963830453341
18006028 8 18272650151373345856
18335252 98 18272652338756268054
19301679 30 15122962690786722822
19315958 150 18058724844716342632
20105231 36 18187369839554306419
21150785 3 16588024606272193663
21267235 1 18409168822582321849
21304303 172 18201162061704936641
23559900 14 18341043141912426568
23569917 315 18200031871890877271
246663 6 18060421309300167238
249057 3 16298392387118044959
3004659 81 18113614603425048568
335352 9 18408880759400111799
3383291 50 18409449210743143587
4017518 198 17704074005738409750
4325135 7 18334014995938538436
4340502 62 14476963397839778725
437815 12 18343582949310935529
439807 62 18411982439190601898
444769 64 18202842171833812591
5283156 175 17967809428293072130
5470011 282 17748831817586415750
5937810 71 12685356441452576207
59755656 215 18409446955753216407
6138700 20 18409166610959137267
636775 8 18261402160406540442
9663363 56 18410285917916990424
9962374 69 18130496539306831062

>  <PUBCHEM_SHAPE_MULTIPOLES>  (1) 
545.22
26.82
2.36
0.8
19.78
1.03
-0.01
-13.06
-4.57
0.36
-0.08
0.23
-0.09
1.46

>  <PUBCHEM_SHAPE_SELFOVERLAP>  (1) 
1188.661

>  <PUBCHEM_SHAPE_VOLUME>  (1) 
293.1

>  <PUBCHEM_COORDINATE_TYPE>  (1) 
2
5
10

$$$$
