6120
     RDKit          3D

 42 48  0  0  1  0  0  0  0  0999 V2000
    1.9027   -1.5979    0.7278 O   0  0  0  0  0  0  0  0  0  0  0  0
   -0.2012   -3.2826    0.9548 O   0  0  0  0  0  0  0  0  0  0  0  0
   -1.6680   -1.6482    2.4541 O   0  0  0  0  0  0  0  0  0  0  0  0
    3.8023   -2.6562   -0.2472 O   0  0  0  0  0  0  0  0  0  0  0  0
   -4.3007   -1.8197    1.2538 O   0  0  0  0  0  0  0  0  0  0  0  0
    5.2147   -0.2051    0.0901 O   0  0  0  0  0  0  0  0  0  0  0  0
   -2.8383   -1.5819   -2.1212 O   0  0  0  0  0  0  0  0  0  0  0  0
   -4.4255    0.4883   -1.5964 O   0  0  0  0  0  0  0  0  0  0  0  0
    6.3616    0.5343    1.9445 O   0  0  0  0  0  0  0  0  0  0  0  0
   -4.0697    1.6670    1.2134 N   0  0  0  0  0  0  0  0  0  0  0  0
    0.8917   -0.7137    0.1472 C   0  0  0  0  0  0  0  0  0  0  0  0
    1.7103    0.3223   -0.6588 C   0  0  0  0  0  0  0  0  0  0  0  0
   -0.0154   -1.5754   -0.7673 C   0  0  0  0  0  0  0  0  0  0  0  0
   -0.9448   -2.2858    0.2355 C   0  0  0  0  0  0  0  0  0  0  0  0
   -1.3354   -1.1121    1.1749 C   0  0  0  0  0  0  0  0  0  0  0  0
    2.6861   -0.6873   -1.3074 C   0  0  0  0  0  0  0  0  0  0  0  0
   -0.0402   -0.2378    1.2707 C   0  0  0  0  0  0  0  0  0  0  0  0
    3.1280   -1.4262   -0.0250 C   0  0  0  0  0  0  0  0  0  0  0  0
   -2.5319   -0.2536    0.6300 C   0  0  0  0  0  0  0  0  0  0  0  0
    0.8182   -2.4440   -1.7081 C   0  0  0  0  0  0  0  0  0  0  0  0
    1.9725   -1.6284   -2.3204 C   0  0  0  0  0  0  0  0  0  0  0  0
   -3.7416   -1.1047    0.1371 C   0  0  0  0  0  0  0  0  0  0  0  0
    2.5020    1.3245    0.2374 C   0  0  0  0  0  0  0  0  0  0  0  0
   -2.1332   -3.0391   -0.3653 C   0  0  0  0  0  0  0  0  0  0  0  0
   -3.2675   -2.1628   -0.8962 C   0  0  0  0  0  0  0  0  0  0  0  0
    4.0592   -0.5643    0.8455 C   0  0  0  0  0  0  0  0  0  0  0  0
    0.9122    1.1766   -1.6566 C   0  0  0  0  0  0  0  0  0  0  0  0
    3.3510    0.6922    1.3381 C   0  0  0  0  0  0  0  0  0  0  0  0
   -4.8803   -0.1492   -0.4019 C   0  0  0  0  0  0  0  0  0  0  0  0
   -3.0229    0.7630    1.6910 C   0  0  0  0  0  0  0  0  0  0  0  0
   -5.2362    0.9402    0.6759 C   0  0  0  0  0  0  0  0  0  0  0  0
   -6.1410   -0.9627   -0.7730 C   0  0  0  0  0  0  0  0  0  0  0  0
   -6.3331    1.9610    0.2920 C   0  0  0  0  0  0  0  0  0  0  0  0
   -3.5432    2.7246    0.3459 C   0  0  0  0  0  0  0  0  0  0  0  0
   -4.6167    3.7744    0.0311 C   0  0  0  0  0  0  0  0  0  0  0  0
   -5.8528    3.1160   -0.5809 C   0  0  0  0  0  0  0  0  0  0  0  0
    6.1396    0.5560    0.7423 C   0  0  0  0  0  0  0  0  0  0  0  0
   -4.0643    4.8552   -0.8968 C   0  0  0  0  0  0  0  0  0  0  0  0
    6.8470    1.4358   -0.2370 C   0  0  0  0  0  0  0  0  0  0  0  0
    6.4840    1.3216   -1.6879 C   0  0  0  0  0  0  0  0  0  0  0  0
    7.7886    2.2483    0.2769 C   0  0  0  0  0  0  0  0  0  0  0  0
    8.6325    3.2375   -0.4626 C   0  0  0  0  0  0  0  0  0  0  0  0
  1 11  1  0
  1 18  1  0
  2 14  1  0
  3 15  1  0
  4 18  1  0
  5 22  1  0
  6 26  1  0
  6 37  1  0
  7 25  1  0
  8 29  1  0
  9 37  2  0
 10 30  1  0
 10 31  1  0
 10 34  1  0
 11 12  1  0
 11 13  1  0
 11 17  1  0
 12 16  1  0
 12 23  1  0
 12 27  1  0
 13 14  1  0
 13 20  1  0
 14 15  1  0
 14 24  1  0
 15 17  1  0
 15 19  1  0
 16 18  1  0
 16 21  1  0
 18 26  1  0
 19 22  1  0
 19 30  1  0
 20 21  1  0
 22 25  1  0
 22 29  1  0
 23 28  1  0
 24 25  1  0
 26 28  1  0
 29 31  1  0
 29 32  1  0
 31 33  1  0
 33 36  1  0
 34 35  1  0
 35 36  1  0
 35 38  1  0
 37 39  1  0
 39 40  1  0
 39 41  2  0
 41 42  1  0
M  END
>  <PUBCHEM_COMPOUND_CID>  (1) 
6120

>  <PUBCHEM_CONFORMER_RMSD>  (1) 
1

>  <PUBCHEM_CONFORMER_DIVERSEORDER>  (1) 
2
4
7
5
6
1
3

>  <PUBCHEM_MMFF94_PARTIAL_CHARGES>  (1) 
33
1 -0.56
10 -0.81
11 0.28
14 0.28
15 0.28
18 0.56
2 -0.68
22 0.28
25 0.28
26 0.28
29 0.28
3 -0.68
30 0.27
31 0.27
34 0.27
37 0.71
39 -0.12
4 -0.68
40 0.14
41 -0.29
42 0.14
5 -0.68
6 -0.43
66 0.4
67 0.4
68 0.4
69 0.4
7 -0.68
77 0.4
78 0.4
8 -0.68
88 0.15
9 -0.57

>  <PUBCHEM_EFFECTIVE_ROTOR_COUNT>  (1) 
6

>  <PUBCHEM_PHARMACOPHORE_FEATURES>  (1) 
23
1 1 acceptor
1 10 cation
1 2 acceptor
1 2 donor
1 3 acceptor
1 3 donor
1 4 acceptor
1 4 donor
1 40 hydrophobe
1 42 hydrophobe
1 5 acceptor
1 5 donor
1 7 acceptor
1 7 donor
1 8 acceptor
1 8 donor
1 9 acceptor
5 11 13 14 15 17 rings
6 10 19 22 29 30 31 rings
6 10 31 33 34 35 36 rings
6 14 15 19 22 24 25 rings
8 1 11 12 13 16 18 20 21 rings
8 1 11 12 16 18 23 26 28 rings

>  <PUBCHEM_HEAVY_ATOM_COUNT>  (1) 
42

>  <PUBCHEM_ATOM_DEF_STEREO_COUNT>  (1) 
14

>  <PUBCHEM_ATOM_UDEF_STEREO_COUNT>  (1) 
0

>  <PUBCHEM_BOND_DEF_STEREO_COUNT>  (1) 
0

>  <PUBCHEM_BOND_UDEF_STEREO_COUNT>  (1) 
1

>  <PUBCHEM_ISOTOPIC_ATOM_COUNT>  (1) 
0

>  <PUBCHEM_COMPONENT_COUNT>  (1) 
1

>  <PUBCHEM_CACTVS_TAUTO_COUNT>  (1) 
1

>  <PUBCHEM_CONFORMER_ID>  (1) 
000017E800000002

>  <PUBCHEM_MMFF94_ENERGY>  (1) 
174.7104

>  <PUBCHEM_FEATURE_SELFOVERLAP>  (1) 
117.978

>  <PUBCHEM_SHAPE_FINGERPRINT>  (1) 
10906281 52 17967541207427310966
11007060 377 18409456889938518002
11456790 92 12613042631424883533
11578080 2 18341334397035520148
11991303 11 16486970765155013596
12422481 6 17827068516168469843
12633257 1 16009329612535207451
12895837 130 18413106160942377069
13560911 43 18261955253905727297
13726171 33 18200318698348684145
13782708 43 9583513214116604428
13811026 1 18130786720667943350
13911987 19 17275388698444035275
14790565 3 18194687184448226796
14856354 85 18270400627939735934
14950920 106 14274325552794009477
14955137 171 12468633959042545614
15064981 113 16916222135746967660
15064986 96 13407063765915822657
15604295 49 18126842932064770760
16112460 7 18040714775259737260
16728433 281 18130521768768778176
17980427 23 18261677064409953044
19053607 189 18340476764976322408
20511986 3 18200864102532441098
20775438 99 12605957455124098514
21033648 144 18272095997781868091
21033648 29 18260557688273648051
21424621 283 18334013865291533890
22121540 332 18272367526063065612
22122407 14 18041851743656166600
23559900 14 17632009853289915578
23569914 152 16625761855857110036
23569914 2 17342331399509924904
2838139 119 18412819192575712472
3418910 222 18116447014235099389
3918712 181 18336542716430009053
397830 11 12180129830417925462
4144715 1 18261685834654641146
4169191 19 18186800331375526508
44249763 50 17988628731966619360
44802255 64 17774729787439161902
44880168 125 11170211877234984193
484985 159 9583520910988149289
563151 97 18412258454530909878
6086070 43 17346873460589483362
6328613 192 18335702788852102224

>  <PUBCHEM_SHAPE_MULTIPOLES>  (1) 
806.54
18.25
4.26
1.75
24.88
3.15
-0.14
18.77
-0.35
-3.83
-0.97
0.28
-0.51
0.19

>  <PUBCHEM_SHAPE_SELFOVERLAP>  (1) 
1761.666

>  <PUBCHEM_SHAPE_VOLUME>  (1) 
430.4

>  <PUBCHEM_COORDINATE_TYPE>  (1) 
2
5
10

$$$$
