6152
     RDKit          3D

 24 26  0  0  1  0  0  0  0  0999 V2000
    6.1407   -3.0704    0.2476 F   0  0  0  0  0  0  0  0  0  0  0  0
    3.5573    2.4727   -1.1504 O   0  0  0  0  0  0  0  0  0  0  0  0
   -1.1086    1.5128    0.7217 N   0  0  0  0  0  0  0  0  0  0  0  0
   -3.3370   -0.4607    0.6319 C   0  0  0  0  0  0  0  0  0  0  0  0
   -4.5592    0.2340   -0.0288 C   0  0  0  0  0  0  0  0  0  0  0  0
   -3.7466   -1.8978    1.0408 C   0  0  0  0  0  0  0  0  0  0  0  0
   -2.9153    0.3115    1.9073 C   0  0  0  0  0  0  0  0  0  0  0  0
   -2.1093   -0.5016   -0.3130 C   0  0  0  0  0  0  0  0  0  0  0  0
   -5.1806   -0.5711   -1.1830 C   0  0  0  0  0  0  0  0  0  0  0  0
   -4.3504   -2.7064   -0.1054 C   0  0  0  0  0  0  0  0  0  0  0  0
   -5.5417   -1.9897   -0.7302 C   0  0  0  0  0  0  0  0  0  0  0  0
   -2.2694    1.6667    1.6055 C   0  0  0  0  0  0  0  0  0  0  0  0
   -1.4814    0.8765   -0.5467 C   0  0  0  0  0  0  0  0  0  0  0  0
   -6.4162    0.1450   -1.7302 C   0  0  0  0  0  0  0  0  0  0  0  0
   -0.4721    2.8072    0.4795 C   0  0  0  0  0  0  0  0  0  0  0  0
    0.8024    2.6236   -0.3469 C   0  0  0  0  0  0  0  0  0  0  0  0
    1.8250    1.7252    0.3545 C   0  0  0  0  0  0  0  0  0  0  0  0
    3.1340    1.5881   -0.4102 C   0  0  0  0  0  0  0  0  0  0  0  0
    3.9367    0.3442   -0.2344 C   0  0  0  0  0  0  0  0  0  0  0  0
    3.8710   -0.3204    0.9696 C   0  0  0  0  0  0  0  0  0  0  0  0
    4.7143   -0.0940   -1.2831 C   0  0  0  0  0  0  0  0  0  0  0  0
    4.6221   -1.4843    1.1337 C   0  0  0  0  0  0  0  0  0  0  0  0
    5.4654   -1.2579   -1.1190 C   0  0  0  0  0  0  0  0  0  0  0  0
    5.4192   -1.9532    0.0895 C   0  0  0  0  0  0  0  0  0  0  0  0
  1 24  1  0
  2 18  2  0
  3 12  1  0
  3 13  1  0
  3 15  1  0
  4  5  1  0
  4  6  1  0
  4  7  1  0
  4  8  1  0
  5  9  1  0
  6 10  1  0
  7 12  1  0
  8 13  1  0
  9 11  1  0
  9 14  1  0
 10 11  1  0
 15 16  1  0
 16 17  1  0
 17 18  1  0
 18 19  1  0
 19 20  2  0
 19 21  1  0
 20 22  1  0
 21 23  2  0
 22 24  2  0
 23 24  1  0
M  END
>  <PUBCHEM_COMPOUND_CID>  (1) 
6152

>  <PUBCHEM_CONFORMER_RMSD>  (1) 
0.8

>  <PUBCHEM_CONFORMER_DIVERSEORDER>  (1) 
1
330
23
78
134
203
362
103
117
302
355
240
116
167
163
389
314
58
171
122
48
263
140
21
393
322
68
401
174
396
6
143
44
186
358
300
271
42
386
190
40
403
220
345
225
305
239
281
178
115
342
298
118
367
73
52
241
265
242
84
397
4
380
382
216
168
254
317
54
373
10
361
75
226
93
108
311
165
385
182
146
287
86
319
80
378
350
238
109
63
310
222
384
295
340
368
173
236
369
201
383
94
113
43
381
207
349
344
53
129
230
72
50
374
76
125
172
237
194
256
162
377
39
152
158
27
400
327
106
402
268
388
264
394
221
290
82
36
101
46
375
329
278
360
145
257
7
83
2
217
179
331
328
334
395
404
277
104
77
233
372
90
336
176
272
47
312
71
261
69
191
192
228
92
359
229
283
392
276
246
184
17
159
100
121
306
289
187
112
35
288
175
18
170
214
74
28
210
208
339
88
89
296
224
245
285
213
66
97
390
249
284
376
15
102
160
135
16
321
30
110
251
346
247
20
206
202
120
275
34
341
356
253
55
231
95
244
37
343
292
274
211
51
180
150
156
357
215
8
223
41
337
107
307
153
267
303
258
141
81
209
85
166
38
212
318
399
181
219
379
291
234
353
67
155
316
269
31
61
62
315
193
24
309
105
195
142
260
308
363
177
325
26
266
56
65
297
204
9
347
248
196
185
70
130
5
96
3
99
250
348
133
299
218
301
123
169
13
293
398
391
280
111
114
32
161
138
259
25
87
98
273
12
33
320
148
365
22
255
232
200
151
14
128
286
197
119
29
188
127
227
64
262
147
183
270
354
323
164
136
144
371
324
59
313
131
338
332
370
387
126
199
57
333
364
366
154
205
282
243
91
235
11
60
252
45
326
279
139
49
149
351
352
294
157
19
189
137
124
132
304
198
79
335

>  <PUBCHEM_MMFF94_PARTIAL_CHARGES>  (1) 
18
1 -0.19
12 0.27
13 0.27
15 0.27
17 0.06
18 0.42
19 0.09
2 -0.57
20 -0.15
21 -0.15
22 -0.15
23 -0.15
24 0.19
3 -0.81
51 0.15
52 0.15
53 0.15
54 0.15

>  <PUBCHEM_EFFECTIVE_ROTOR_COUNT>  (1) 
7

>  <PUBCHEM_PHARMACOPHORE_FEATURES>  (1) 
5
1 2 acceptor
1 3 cation
6 19 20 21 22 23 24 rings
6 3 4 7 8 12 13 rings
6 4 5 6 9 10 11 rings

>  <PUBCHEM_HEAVY_ATOM_COUNT>  (1) 
24

>  <PUBCHEM_ATOM_DEF_STEREO_COUNT>  (1) 
0

>  <PUBCHEM_ATOM_UDEF_STEREO_COUNT>  (1) 
1

>  <PUBCHEM_BOND_DEF_STEREO_COUNT>  (1) 
0

>  <PUBCHEM_BOND_UDEF_STEREO_COUNT>  (1) 
0

>  <PUBCHEM_ISOTOPIC_ATOM_COUNT>  (1) 
0

>  <PUBCHEM_COMPONENT_COUNT>  (1) 
1

>  <PUBCHEM_CACTVS_TAUTO_COUNT>  (1) 
2

>  <PUBCHEM_CONFORMER_ID>  (1) 
0000180800000001

>  <PUBCHEM_MMFF94_ENERGY>  (1) 
48.5186

>  <PUBCHEM_FEATURE_SELFOVERLAP>  (1) 
25.374

>  <PUBCHEM_SHAPE_FINGERPRINT>  (1) 
10498660 4 12612759025389882692
10622 236 18129370674145433719
10928967 22 18335717000725052162
11135609 201 9006763285627728116
11796584 16 17895747508357829401
12107183 9 18269288880293453689
12166972 35 18187931719870362639
12760667 363 18412262805126460977
12925494 130 10302447575162614467
13533116 47 18201155567471077153
1361 87 18041296412684766986
13782708 43 18195241346983288127
13885169 86 9367049095560067926
13914758 101 17988923341438682557
14848178 5 18343580763161752896
14849402 71 10519724280077933548
14866123 147 18269560442786156433
14910302 57 18187069685637938821
14931854 50 18040444265772402630
14950920 106 12750699317203507669
15052358 14 18188477009456404397
15163728 17 12757145766535499473
15183329 4 18260542317113229349
15188451 53 17632287947953153828
15250474 111 18410299077628330578
15342168 16 8935010264964178953
15475509 8 17167854250004309757
17349148 13 17488753405681703917
17857418 61 18413111645430510424
18222031 100 18272089409296741820
19377110 9 10519980465980905533
20028762 73 18272368651212862006
21279426 13 18261664944244092127
21302155 148 8790888488540119131
21315764 119 17675922071412865471
21401589 2 10951756469994331116
21703447 108 18200868599369007992
22061861 79 18259980496287619335
235170 7 15430047560597405178
23559900 14 18339633560016861881
25222932 49 17911804892297556774
2838139 119 7925624467683036654
3004659 81 18259700116669987020
312425 54 17846222116050726368
339767 52 18411694409286215026
3472631 163 11458422448748376123
3729539 64 18041271072477622387
437795 70 16878215381839633189
44062 13 18334011649188830789
46194498 28 15649052774494954860
5085150 59 17274821338381965383
5104073 3 17775013404998028121
559249 180 18343021043720284681
57307002 182 14260765339927600810
6034566 193 10665229246144191945
6443934 186 14548162341804718048
7970288 3 18338798910427390870
960060 61 17749110023618058996

>  <PUBCHEM_SHAPE_MULTIPOLES>  (1) 
475.78
16.4
3.18
1.48
4.13
0
0.13
-12.77
-4.81
1.85
0.21
-0.88
0.11
-1.05

>  <PUBCHEM_SHAPE_SELFOVERLAP>  (1) 
988.56

>  <PUBCHEM_SHAPE_VOLUME>  (1) 
271.5

>  <PUBCHEM_COORDINATE_TYPE>  (1) 
2
5
10

$$$$
