6156
     RDKit          3D

 24 26  0  0  0  0  0  0  0  0999 V2000
   -5.2723   -3.5684   -0.1124 F   0  0  0  0  0  0  0  0  0  0  0  0
   -3.4521    2.3106    1.1036 O   0  0  0  0  0  0  0  0  0  0  0  0
    0.5377    1.4013    0.1663 N   0  0  0  0  0  0  0  0  0  0  0  0
    3.0143   -0.1083   -0.5066 C   0  0  0  0  0  0  0  0  0  0  0  0
    4.2285    0.7997   -0.1789 C   0  0  0  0  0  0  0  0  0  0  0  0
    3.5404   -1.4374   -1.1039 C   0  0  0  0  0  0  0  0  0  0  0  0
    2.1071    0.5787   -1.5577 C   0  0  0  0  0  0  0  0  0  0  0  0
    2.1459   -0.3900    0.7457 C   0  0  0  0  0  0  0  0  0  0  0  0
    5.7663   -1.2013    0.0791 C   0  0  0  0  0  0  0  0  0  0  0  0
    5.2864    0.1186    0.6918 C   0  0  0  0  0  0  0  0  0  0  0  0
    4.5852   -2.1277   -0.2272 C   0  0  0  0  0  0  0  0  0  0  0  0
    1.3427    1.7824   -0.9995 C   0  0  0  0  0  0  0  0  0  0  0  0
    1.3735    0.8404    1.2337 C   0  0  0  0  0  0  0  0  0  0  0  0
    6.7692   -1.8916    1.0017 C   0  0  0  0  0  0  0  0  0  0  0  0
   -0.2260    2.5467    0.6602 C   0  0  0  0  0  0  0  0  0  0  0  0
   -1.1508    3.0784   -0.4366 C   0  0  0  0  0  0  0  0  0  0  0  0
   -2.1549    2.0242   -0.9112 C   0  0  0  0  0  0  0  0  0  0  0  0
   -3.1196    1.5751    0.1772 C   0  0  0  0  0  0  0  0  0  0  0  0
   -3.6943    0.2018    0.0998 C   0  0  0  0  0  0  0  0  0  0  0  0
   -3.8778   -0.3691   -1.1397 C   0  0  0  0  0  0  0  0  0  0  0  0
   -4.0204   -0.4451    1.2708 C   0  0  0  0  0  0  0  0  0  0  0  0
   -4.4155   -1.6541   -1.2120 C   0  0  0  0  0  0  0  0  0  0  0  0
   -4.5580   -1.7302    1.1987 C   0  0  0  0  0  0  0  0  0  0  0  0
   -4.7556   -2.3348   -0.0429 C   0  0  0  0  0  0  0  0  0  0  0  0
  1 24  1  0
  2 18  2  0
  3 12  1  0
  3 13  1  0
  3 15  1  0
  4  5  1  0
  4  6  1  0
  4  7  1  0
  4  8  1  0
  5 10  1  0
  6 11  1  0
  7 12  1  0
  8 13  1  0
  9 10  1  0
  9 11  1  0
  9 14  1  0
 15 16  1  0
 16 17  1  0
 17 18  1  0
 18 19  1  0
 19 20  2  0
 19 21  1  0
 20 22  1  0
 21 23  2  0
 22 24  2  0
 23 24  1  0
M  END
>  <PUBCHEM_COMPOUND_CID>  (1) 
6156

>  <PUBCHEM_CONFORMER_RMSD>  (1) 
0.8

>  <PUBCHEM_CONFORMER_DIVERSEORDER>  (1) 
2
51
170
142
7
105
145
231
144
103
164
199
15
41
57
230
157
121
63
185
176
206
61
64
76
241
116
148
85
81
108
43
174
233
46
207
154
82
153
3
112
204
224
60
229
9
101
75
232
193
120
143
36
92
90
209
48
21
239
198
87
80
32
201
166
113
129
243
96
17
216
133
210
19
104
222
18
122
125
83
212
181
95
94
30
4
208
53
102
88
23
226
135
124
115
130
132
52
139
240
180
156
109
28
79
55
86
56
167
168
173
192
26
47
202
189
73
131
217
200
106
98
155
38
72
91
150
78
163
165
218
31
179
137
37
136
5
215
159
77
141
20
100
197
225
220
10
151
107
119
128
84
178
67
111
211
69
152
187
219
169
162
74
126
34
65
93
188
175
62
14
194
221
186
45
29
203
237
39
158
50
25
70
42
110
235
40
123
161
27
89
160
171
35
22
172
214
24
1
6
236
213
71
11
234
183
147
191
227
138
16
190
238
44
205
13
49
8
59
117
99
149
118
68
114
134
54
184
58
97
196
242
228
223
146
12
140
66
127
195
182
177
33

>  <PUBCHEM_MMFF94_PARTIAL_CHARGES>  (1) 
18
1 -0.19
12 0.27
13 0.27
15 0.27
17 0.06
18 0.42
19 0.09
2 -0.57
20 -0.15
21 -0.15
22 -0.15
23 -0.15
24 0.19
3 -0.81
51 0.15
52 0.15
53 0.15
54 0.15

>  <PUBCHEM_EFFECTIVE_ROTOR_COUNT>  (1) 
7

>  <PUBCHEM_PHARMACOPHORE_FEATURES>  (1) 
5
1 2 acceptor
1 3 cation
6 19 20 21 22 23 24 rings
6 3 4 7 8 12 13 rings
6 4 5 6 9 10 11 rings

>  <PUBCHEM_HEAVY_ATOM_COUNT>  (1) 
24

>  <PUBCHEM_ATOM_DEF_STEREO_COUNT>  (1) 
0

>  <PUBCHEM_ATOM_UDEF_STEREO_COUNT>  (1) 
0

>  <PUBCHEM_BOND_DEF_STEREO_COUNT>  (1) 
0

>  <PUBCHEM_BOND_UDEF_STEREO_COUNT>  (1) 
0

>  <PUBCHEM_ISOTOPIC_ATOM_COUNT>  (1) 
0

>  <PUBCHEM_COMPONENT_COUNT>  (1) 
1

>  <PUBCHEM_CACTVS_TAUTO_COUNT>  (1) 
2

>  <PUBCHEM_CONFORMER_ID>  (1) 
0000180C00000002

>  <PUBCHEM_MMFF94_ENERGY>  (1) 
48.5048

>  <PUBCHEM_FEATURE_SELFOVERLAP>  (1) 
25.374

>  <PUBCHEM_SHAPE_FINGERPRINT>  (1) 
10670039 82 9078821974977157654
10928967 22 18339374057903381575
11273773 118 10303522970637550622
11796584 16 18266737983293764120
11828532 37 17753337762287880043
12166972 35 17603868943956276438
12390115 104 9727629527009694256
12616971 3 17604444998097926452
12633257 1 15841273774192794813
12990986 174 18411982455499623871
13103583 49 17489320697714932985
13544653 18 18413389838788898132
13782708 43 18339921507873407866
13911882 115 17917152685301657246
13965767 371 11815357986979685881
14123255 352 9583523105246809097
14211702 104 18265615386613158058
14251751 18 18413108363912232434
14347329 18 8790882965212294030
14429380 30 18335705000154001147
14739800 52 8933853484664212158
14844126 61 18272087167708720929
14848178 5 18335135414391010007
14848178 96 8574445196442920893
14950920 106 16630240411298113931
15163728 17 8430322354651499617
15183329 4 10953742179973676944
15352361 1 18410856594400487199
15728490 83 18187656751891159075
16120349 189 10879725256125719947
17349148 13 17313394370679228512
17780758 139 17988645164427104585
18927931 339 18337958891478940549
20028762 73 18408882928464864234
20775438 99 17400346245469665931
21033648 144 12614194991817828636
21033648 29 14836140814388786521
21054139 6 17968094184466749306
21401589 2 10591768705676761365
22393880 68 17603574214673703277
23402539 116 17968380039924992528
23559900 14 18337379500502369713
25122255 55 18269281158205661350
270888 7 9727366727020427767
2838139 119 8286192834596551782
329604 57 18409168839683004780
339767 52 18412537717630410157
397830 11 18271511049749593504
4280585 95 18187355511252976636
439807 62 18187930625049756203
445580 182 17560818610575611315
474 4 9294748454113335213
484985 159 18409444761799849215
5104073 3 18273213080332063672
5486654 36 18410864265544777377
559249 180 18335139735893442333
6431902 208 18409165510920352622
7288768 16 11599733891491331669
7495541 125 18130782352976341088
7970288 3 18266178512354257291
9849439 229 10303549320314977427

>  <PUBCHEM_SHAPE_MULTIPOLES>  (1) 
475.78
14.89
3.38
1.33
8.32
0.15
0.06
13.45
-1.99
-3.68
0.06
-0.31
0.02
-0.49

>  <PUBCHEM_SHAPE_SELFOVERLAP>  (1) 
989.9

>  <PUBCHEM_SHAPE_VOLUME>  (1) 
271.8

>  <PUBCHEM_COORDINATE_TYPE>  (1) 
2
5
10

$$$$
