616
     RDKit          3D

 18 17  0  0  1  0  0  0  0  0999 V2000
   -4.3600   -0.6151   -0.2437 P   0  0  0  0  0  0  0  0  0  0  0  0
    0.1112    0.7608    1.8981 O   0  0  0  0  0  0  0  0  0  0  0  0
    1.3251   -0.3136   -1.3893 O   0  0  0  0  0  0  0  0  0  0  0  0
   -0.6246    2.3812   -0.2985 O   0  0  0  0  0  0  0  0  0  0  0  0
    2.0964   -1.8734    0.8793 O   0  0  0  0  0  0  0  0  0  0  0  0
   -2.9812   -0.2723    0.5231 O   0  0  0  0  0  0  0  0  0  0  0  0
    4.3533   -1.5342   -0.3720 O   0  0  0  0  0  0  0  0  0  0  0  0
    5.7537    0.6942   -0.7754 O   0  0  0  0  0  0  0  0  0  0  0  0
   -4.0886   -0.1299   -1.7623 O   0  0  0  0  0  0  0  0  0  0  0  0
   -5.3719    0.5082    0.3302 O   0  0  0  0  0  0  0  0  0  0  0  0
   -4.8360   -2.0308   -0.0978 O   0  0  0  0  0  0  0  0  0  0  0  0
   -0.0025    0.2463    0.5710 C   0  0  0  0  0  0  0  0  0  0  0  0
    1.3949    0.2552   -0.0844 C   0  0  0  0  0  0  0  0  0  0  0  0
   -1.0803    1.0221   -0.2102 C   0  0  0  0  0  0  0  0  0  0  0  0
    2.4603   -0.5074    0.7235 C   0  0  0  0  0  0  0  0  0  0  0  0
   -2.4692    1.0559    0.4278 C   0  0  0  0  0  0  0  0  0  0  0  0
    3.8248   -0.4976    0.0328 C   0  0  0  0  0  0  0  0  0  0  0  0
    4.4947    0.8505   -0.1521 C   0  0  0  0  0  0  0  0  0  0  0  0
  1  6  1  0
  1  9  1  0
  1 10  1  0
  1 11  2  0
  2 12  1  0
  3 13  1  0
  4 14  1  0
  5 15  1  0
  6 16  1  0
  7 17  2  0
  8 18  1  0
 12 13  1  0
 12 14  1  0
 13 15  1  0
 14 16  1  0
 15 17  1  0
 17 18  1  0
M  END
>  <PUBCHEM_COMPOUND_CID>  (1) 
616

>  <PUBCHEM_CONFORMER_RMSD>  (1) 
1

>  <PUBCHEM_CONFORMER_DIVERSEORDER>  (1) 
1
295
71
330
100
286
162
247
38
143
350
18
447
83
3
329
292
177
252
98
420
456
440
299
457
356
282
54
10
396
50
43
17
432
257
64
460
442
376
49
209
228
214
344
80
461
12
395
217
308
6
169
42
118
406
370
221
40
179
374
178
443
213
346
391
27
324
182
158
24
335
23
383
196
439
291
269
238
305
409
132
343
275
325
448
195
400
297
21
236
243
9
79
429
416
444
145
25
262
393
122
41
379
151
135
47
66
371
239
73
405
81
336
412
166
72
2
245
375
78
157
20
389
415
392
255
26
318
270
317
61
7
56
111
302
315
188
249
232
192
462
434
189
146
14
35
408
321
68
293
342
203
174
55
355
428
458
31
313
115
85
411
87
363
327
289
234
153
294
92
418
463
89
413
110
288
183
29
207
19
48
435
388
8
450
334
362
368
136
426
437
91
116
137
22
278
90
205
33
298
86
139
385
361
253
348
46
218
251
226
150
191
206
167
340
58
184
424
99
96
328
381
180
224
13
280
148
332
254
359
446
296
164
445
15
140
333
44
402
163
378
364
60
200
101
455
279
120
159
345
398
84
246
283
310
28
39
62
216
241
230
267
156
112
57
427
352
451
117
123
314
155
307
107
326
242
201
323
358
248
149
141
459
284
320
74
37
401
229
306
354
4
124
103
386
425
75
258
186
423
261
129
273
52
268
417
430
419
59
168
421
171
274
309
266
366
97
303
125
130
367
93
45
410
160
175
11
109
127
357
181
95
369
227
173
34
322
105
176
453
222
126
264
231
441
365
199
380
399
414
384
337
312
219
5
119
190
349
53
36
438
256
77
285
65
147
76
170
165
215
185
94
360
202
390
204
131
237
113
240
16
235
233
210
225
172
70
276
260
154
353
197
272
404
372
144
142
331
341
194
271
394
338
69
152
449
133
433
138
102
431
82
193
250
104
290
208
106
32
422
373
30
436
319
351
198
244
347
108
387
304
211
223
377
339
114
88
212
265
67
121
454
281
382
407
134
63
452
311
220
51
316
301
259
161
263
187
397
300
403
277
128
287

>  <PUBCHEM_MMFF94_PARTIAL_CHARGES>  (1) 
25
1 1.51
10 -0.77
11 -0.7
12 0.28
13 0.28
14 0.28
15 0.34
16 0.28
17 0.45
18 0.34
2 -0.68
25 0.4
26 0.4
27 0.4
28 0.4
3 -0.68
31 0.4
32 0.5
33 0.5
4 -0.68
5 -0.68
6 -0.55
7 -0.57
8 -0.68
9 -0.77

>  <PUBCHEM_EFFECTIVE_ROTOR_COUNT>  (1) 
8

>  <PUBCHEM_PHARMACOPHORE_FEATURES>  (1) 
15
1 10 acceptor
1 11 acceptor
1 2 acceptor
1 2 donor
1 3 acceptor
1 3 donor
1 4 acceptor
1 4 donor
1 5 acceptor
1 5 donor
1 7 acceptor
1 8 acceptor
1 8 donor
1 9 acceptor
4 1 9 10 11 anion

>  <PUBCHEM_HEAVY_ATOM_COUNT>  (1) 
18

>  <PUBCHEM_ATOM_DEF_STEREO_COUNT>  (1) 
0

>  <PUBCHEM_ATOM_UDEF_STEREO_COUNT>  (1) 
4

>  <PUBCHEM_BOND_DEF_STEREO_COUNT>  (1) 
0

>  <PUBCHEM_BOND_UDEF_STEREO_COUNT>  (1) 
0

>  <PUBCHEM_ISOTOPIC_ATOM_COUNT>  (1) 
0

>  <PUBCHEM_COMPONENT_COUNT>  (1) 
1

>  <PUBCHEM_CACTVS_TAUTO_COUNT>  (1) 
12

>  <PUBCHEM_CONFORMER_ID>  (1) 
0000026800000001

>  <PUBCHEM_MMFF94_ENERGY>  (1) 
-4.4278

>  <PUBCHEM_FEATURE_SELFOVERLAP>  (1) 
76.2

>  <PUBCHEM_SHAPE_FINGERPRINT>  (1) 
11046707 91 18059851770988142179
11401426 45 15357697504655561416
11543360 7 18261108547930904808
11806522 49 18334859437109724428
12119455 92 12829203390606159786
12633257 1 15697721519033195051
12815109 37 18334857212527577225
12916754 54 18269561537965341040
13533116 47 16732971008839877696
13675066 3 12463564084660817194
14004511 7 9583516520814102464
14251718 22 18334013929758117670
14251764 18 18131073723873907369
14251764 30 15841560665086492180
14251764 38 15719396148327033548
14943859 89 8358253748375044165
15375358 24 16009033877892521264
17834072 14 16588026809775137092
17834072 33 18412826893304225008
18186145 218 16153714232293987977
18222031 100 17060327535497266897
200 152 18113337496398253981
20281475 54 18339636755139960955
20645477 56 12252196147091410401
20645477 70 17677329403420845682
20871999 31 18187638103316433349
212847 35 7853570210602881542
21503847 285 12607398905877738962
22485316 2 18409445873816466625
231179 274 8142096372530516747
23402539 116 18408885122496190053
23402655 69 17604141537220037597
23557571 272 18271248209650023141
23559900 14 18410289254695376304
2871803 45 18261108539388534002
328317 168 17530970198190937824
351380 180 10159695798605155915
4325135 7 18412266142658928596
58051976 378 18334580135776829730
6430166 295 8790888484034005915
7495541 125 17703785934091838314

>  <PUBCHEM_SHAPE_MULTIPOLES>  (1) 
315.59
11.66
1.62
1.14
1.35
0.1
-0.02
2.61
-2.56
0.29
0.05
0.22
-0.03
-0.44

>  <PUBCHEM_SHAPE_SELFOVERLAP>  (1) 
597.952

>  <PUBCHEM_SHAPE_VOLUME>  (1) 
194.7

>  <PUBCHEM_COORDINATE_TYPE>  (1) 
2
5
10

$$$$
