6197
     RDKit          3D

 20 21  0  0  1  0  0  0  0  0999 V2000
   -0.4952    0.9739   -1.8441 O   0  0  0  0  0  0  0  0  0  0  0  0
   -2.4809    2.1301   -0.2271 O   0  0  0  0  0  0  0  0  0  0  0  0
    4.5406   -2.1770    0.3560 O   0  0  0  0  0  0  0  0  0  0  0  0
    3.3241    2.0439    1.7412 O   0  0  0  0  0  0  0  0  0  0  0  0
    3.9111   -0.0645    1.0236 N   0  0  0  0  0  0  0  0  0  0  0  0
   -1.4294   -0.0171    0.1297 C   0  0  0  0  0  0  0  0  0  0  0  0
   -3.1221   -1.9339   -0.0625 C   0  0  0  0  0  0  0  0  0  0  0  0
   -1.8220   -1.3102   -0.5933 C   0  0  0  0  0  0  0  0  0  0  0  0
   -0.1844    0.5948   -0.5076 C   0  0  0  0  0  0  0  0  0  0  0  0
   -3.9298    0.3979    0.6352 C   0  0  0  0  0  0  0  0  0  0  0  0
   -4.2627   -0.9050   -0.0999 C   0  0  0  0  0  0  0  0  0  0  0  0
   -2.6075    0.9540    0.1117 C   0  0  0  0  0  0  0  0  0  0  0  0
    0.9732   -0.4036   -0.5222 C   0  0  0  0  0  0  0  0  0  0  0  0
    2.2255    0.1751   -1.1863 C   0  0  0  0  0  0  0  0  0  0  0  0
   -2.9419   -2.5437    1.3293 C   0  0  0  0  0  0  0  0  0  0  0  0
   -5.0664    1.4051    0.4796 C   0  0  0  0  0  0  0  0  0  0  0  0
    3.3653   -0.8370   -1.2430 C   0  0  0  0  0  0  0  0  0  0  0  0
    2.7077    1.4459   -0.4941 C   0  0  0  0  0  0  0  0  0  0  0  0
    3.9775   -1.1103    0.1108 C   0  0  0  0  0  0  0  0  0  0  0  0
    3.3172    1.1816    0.8629 C   0  0  0  0  0  0  0  0  0  0  0  0
  1  9  1  0
  2 12  2  0
  3 19  2  0
  4 20  2  0
  5 19  1  0
  5 20  1  0
  6  8  1  0
  6  9  1  0
  6 12  1  0
  7  8  1  0
  7 11  1  0
  7 15  1  0
  9 13  1  0
 10 11  1  0
 10 12  1  0
 10 16  1  0
 13 14  1  0
 14 17  1  0
 14 18  1  0
 17 19  1  0
 18 20  1  0
M  END
>  <PUBCHEM_COMPOUND_CID>  (1) 
6197

>  <PUBCHEM_CONFORMER_RMSD>  (1) 
0.6

>  <PUBCHEM_CONFORMER_DIVERSEORDER>  (1) 
8
18
20
25
4
2
16
5
9
15
22
7
21
12
14
24
6
10
19
13
3
1
23
17
11

>  <PUBCHEM_MMFF94_PARTIAL_CHARGES>  (1) 
15
1 -0.68
10 0.06
12 0.45
17 0.06
18 0.06
19 0.57
2 -0.57
20 0.57
3 -0.57
4 -0.57
42 0.4
43 0.37
5 -0.49
6 0.06
9 0.28

>  <PUBCHEM_EFFECTIVE_ROTOR_COUNT>  (1) 
4.8

>  <PUBCHEM_PHARMACOPHORE_FEATURES>  (1) 
8
1 1 acceptor
1 1 donor
1 2 acceptor
1 3 acceptor
1 4 acceptor
1 5 donor
6 5 14 17 18 19 20 rings
6 6 7 8 10 11 12 rings

>  <PUBCHEM_HEAVY_ATOM_COUNT>  (1) 
20

>  <PUBCHEM_ATOM_DEF_STEREO_COUNT>  (1) 
4

>  <PUBCHEM_ATOM_UDEF_STEREO_COUNT>  (1) 
0

>  <PUBCHEM_BOND_DEF_STEREO_COUNT>  (1) 
0

>  <PUBCHEM_BOND_UDEF_STEREO_COUNT>  (1) 
0

>  <PUBCHEM_ISOTOPIC_ATOM_COUNT>  (1) 
0

>  <PUBCHEM_COMPONENT_COUNT>  (1) 
1

>  <PUBCHEM_CACTVS_TAUTO_COUNT>  (1) 
6

>  <PUBCHEM_CONFORMER_ID>  (1) 
0000183500000008

>  <PUBCHEM_MMFF94_ENERGY>  (1) 
41.3914

>  <PUBCHEM_FEATURE_SELFOVERLAP>  (1) 
40.601

>  <PUBCHEM_SHAPE_FINGERPRINT>  (1) 
10366900 7 18272658951818980982
11045977 3 18344146985885593320
11132069 177 18410014347113882269
11370993 144 18342175544420386401
11405975 8 18342179959630923155
11543360 7 8286201651652473670
11615757 297 16200158736953145947
12346177 29 18333443240521490735
12507560 40 18201441414650369053
12553582 1 16660361480658686182
12596599 1 17458623470801419243
12633257 1 18200887174943404257
12670546 56 18412820300650738495
12707595 3 15068620504692802836
128620 24 10879989159794635791
12892183 10 18268147741462329335
13004483 165 17414694751936903623
13224815 77 18187928421161327566
13533116 47 18411133641129265699
13583140 156 18059570338417857128
13675066 3 18410858784696755415
14178342 30 18188208809548534555
14251758 9 17749384820163172109
14289901 80 18198905996713438410
14341114 176 18341055142361956528
14420673 8 18192999205833912306
14866123 147 16256186181946126830
15295992 7 17917425415044295601
15375358 24 17846503621319028287
16752209 62 16370991975958565572
17492 89 18116160041579079947
17804303 29 18410583859371007207
1813 80 16950285104611737084
19050596 39 18411419518188439751
20281475 54 18113341941721125670
20681677 76 18201711898806080961
20775530 9 17026255723664426050
21065198 57 18342457049414349840
21065199 12 18342174509385963698
22169311 14 18342455924396655828
22646028 1 18040437689391079711
22646028 28 17967813877088062006
23402539 116 18341610379039515069
23503953 91 18187644729913102189
23559900 14 18341061760785214652
2838139 119 13684358322451050659
3286 77 18411697677951570902
351380 180 17988922232630173465
42 15 18409449159223854894
49207404 50 18131071592657459768
5104073 3 18343308084658029043
5374978 207 18272372009433311355
5924683 9 18201713003240573255
633830 44 16588311596023848573
9709674 26 18342184349214723895
9981440 41 17106234585609888461

>  <PUBCHEM_SHAPE_MULTIPOLES>  (1) 
383.13
10.26
2.31
1.28
0.41
0.53
-0.03
0.86
-2.6
-0.66
-0.62
0.83
-0.17
0.72

>  <PUBCHEM_SHAPE_SELFOVERLAP>  (1) 
787.213

>  <PUBCHEM_SHAPE_VOLUME>  (1) 
217.4

>  <PUBCHEM_COORDINATE_TYPE>  (1) 
2
5
10

$$$$
