62
     RDKit          3D

 10 10  0  0  1  0  0  0  0  0999 V2000
   -1.7564    1.7940   -1.1392 Cl  0  0  0  0  0  0  0  0  0  0  0  0
    3.0303    0.8752    0.3686 Cl  0  0  0  0  0  0  0  0  0  0  0  0
   -2.9913   -0.9713    0.3988 Cl  0  0  0  0  0  0  0  0  0  0  0  0
    1.6278   -1.5050   -1.1238 O   0  0  0  0  0  0  0  0  0  0  0  0
    1.0929   -1.0581    0.1203 C   0  0  0  0  0  0  0  0  0  0  0  0
   -1.0648    0.9987    0.3100 C   0  0  0  0  0  0  0  0  0  0  0  0
    1.3661    0.4134    0.2698 C   0  0  0  0  0  0  0  0  0  0  0  0
   -0.3690   -1.4063    0.1703 C   0  0  0  0  0  0  0  0  0  0  0  0
   -1.3364   -0.4807    0.2609 C   0  0  0  0  0  0  0  0  0  0  0  0
    0.4007    1.3401    0.3643 C   0  0  0  0  0  0  0  0  0  0  0  0
  1  6  1  0
  2  7  1  0
  3  9  1  0
  4  5  1  0
  5  7  1  0
  5  8  1  0
  6  9  1  0
  6 10  1  0
  7 10  2  0
  8  9  2  0
M  END
>  <PUBCHEM_COMPOUND_CID>  (1) 
62

>  <PUBCHEM_CONFORMER_RMSD>  (1) 
0.4

>  <PUBCHEM_CONFORMER_DIVERSEORDER>  (1) 
1
3
2
4

>  <PUBCHEM_MMFF94_PARTIAL_CHARGES>  (1) 
11
1 -0.29
10 -0.29
13 0.15
14 0.15
15 0.4
2 -0.14
3 -0.14
4 -0.68
5 0.56
6 0.57
8 -0.29

>  <PUBCHEM_EFFECTIVE_ROTOR_COUNT>  (1) 
0.4

>  <PUBCHEM_PHARMACOPHORE_FEATURES>  (1) 
3
1 4 acceptor
1 4 donor
6 5 6 7 8 9 10 rings

>  <PUBCHEM_HEAVY_ATOM_COUNT>  (1) 
10

>  <PUBCHEM_ATOM_DEF_STEREO_COUNT>  (1) 
0

>  <PUBCHEM_ATOM_UDEF_STEREO_COUNT>  (1) 
2

>  <PUBCHEM_BOND_DEF_STEREO_COUNT>  (1) 
0

>  <PUBCHEM_BOND_UDEF_STEREO_COUNT>  (1) 
0

>  <PUBCHEM_ISOTOPIC_ATOM_COUNT>  (1) 
0

>  <PUBCHEM_COMPONENT_COUNT>  (1) 
1

>  <PUBCHEM_CACTVS_TAUTO_COUNT>  (1) 
1

>  <PUBCHEM_CONFORMER_ID>  (1) 
0000003E00000001

>  <PUBCHEM_MMFF94_ENERGY>  (1) 
2.929

>  <PUBCHEM_FEATURE_SELFOVERLAP>  (1) 
15.223

>  <PUBCHEM_SHAPE_FINGERPRINT>  (1) 
12138202 97 18042947831635403549
12423570 1 10408078502796840753
13380535 239 18411704257424756565
15219456 202 18341894056701140032
161256 15 18339654372953455435
16945 1 18190162676044099808
18185500 45 15315754825359006746
20588541 1 18267592475237029755
20711978 78 17560809792216422223
21040471 1 17828480267470534889
21922407 69 15286228097609040601
23235685 24 18272087265907425856
23402655 69 18269538500140781781
23552423 10 18262246512321871026
241688 4 18266191534156262416
2748010 2 18339361855436296838
5084963 1 18409728508202433656

>  <PUBCHEM_SHAPE_MULTIPOLES>  (1) 
205.54
3.76
1.95
0.92
0.41
0.28
-0.21
0.04
0.32
-0.47
-0.45
-0.02
0.06
0.77

>  <PUBCHEM_SHAPE_SELFOVERLAP>  (1) 
390.06

>  <PUBCHEM_SHAPE_VOLUME>  (1) 
129.7

>  <PUBCHEM_COORDINATE_TYPE>  (1) 
2
5
10

$$$$
