6200
     RDKit          3D

 16 17  0  0  0  0  0  0  0  0999 V2000
    5.6461    0.8720   -0.1717 O   0  0  0  0  0  0  0  0  0  0  0  0
   -5.6461    0.8720    0.1717 O   0  0  0  0  0  0  0  0  0  0  0  0
    0.7234   -0.1237    0.0120 C   0  0  0  0  0  0  0  0  0  0  0  0
   -0.7234   -0.1237   -0.0121 C   0  0  0  0  0  0  0  0  0  0  0  0
    1.4264    1.0428   -0.2889 C   0  0  0  0  0  0  0  0  0  0  0  0
   -1.4264    1.0427    0.2889 C   0  0  0  0  0  0  0  0  0  0  0  0
    1.4149   -1.2908    0.3368 C   0  0  0  0  0  0  0  0  0  0  0  0
   -1.4149   -1.2908   -0.3368 C   0  0  0  0  0  0  0  0  0  0  0  0
    3.5127   -0.1249    0.0596 C   0  0  0  0  0  0  0  0  0  0  0  0
   -3.5128   -0.1248   -0.0597 C   0  0  0  0  0  0  0  0  0  0  0  0
    2.8210    1.0421   -0.2651 C   0  0  0  0  0  0  0  0  0  0  0  0
   -2.8210    1.0422    0.2652 C   0  0  0  0  0  0  0  0  0  0  0  0
    2.8096   -1.2915    0.3606 C   0  0  0  0  0  0  0  0  0  0  0  0
   -2.8096   -1.2914   -0.3606 C   0  0  0  0  0  0  0  0  0  0  0  0
    4.9668   -0.1260    0.0849 C   0  0  0  0  0  0  0  0  0  0  0  0
   -4.9668   -0.1261   -0.0848 C   0  0  0  0  0  0  0  0  0  0  0  0
  1 15  2  0
  2 16  2  0
  3  4  1  0
  3  5  2  0
  3  7  1  0
  4  6  2  0
  4  8  1  0
  5 11  1  0
  6 12  1  0
  7 13  2  0
  8 14  2  0
  9 11  2  0
  9 13  1  0
  9 15  1  0
 10 12  2  0
 10 14  1  0
 10 16  1  0
M  END
>  <PUBCHEM_COMPOUND_CID>  (1) 
6200

>  <PUBCHEM_CONFORMER_RMSD>  (1) 
0.6

>  <PUBCHEM_CONFORMER_DIVERSEORDER>  (1) 
1
2

>  <PUBCHEM_MMFF94_PARTIAL_CHARGES>  (1) 
24
1 -0.57
10 0.09
11 -0.15
12 -0.15
13 -0.15
14 -0.15
15 0.42
16 0.42
17 0.15
18 0.15
19 0.15
2 -0.57
20 0.15
21 0.15
22 0.15
23 0.15
24 0.15
25 0.06
26 0.06
5 -0.15
6 -0.15
7 -0.15
8 -0.15
9 0.09

>  <PUBCHEM_EFFECTIVE_ROTOR_COUNT>  (1) 
3

>  <PUBCHEM_PHARMACOPHORE_FEATURES>  (1) 
4
1 1 acceptor
1 2 acceptor
6 3 5 7 9 11 13 rings
6 4 6 8 10 12 14 rings

>  <PUBCHEM_HEAVY_ATOM_COUNT>  (1) 
16

>  <PUBCHEM_ATOM_DEF_STEREO_COUNT>  (1) 
0

>  <PUBCHEM_ATOM_UDEF_STEREO_COUNT>  (1) 
0

>  <PUBCHEM_BOND_DEF_STEREO_COUNT>  (1) 
0

>  <PUBCHEM_BOND_UDEF_STEREO_COUNT>  (1) 
0

>  <PUBCHEM_ISOTOPIC_ATOM_COUNT>  (1) 
0

>  <PUBCHEM_COMPONENT_COUNT>  (1) 
1

>  <PUBCHEM_CACTVS_TAUTO_COUNT>  (1) 
1

>  <PUBCHEM_CONFORMER_ID>  (1) 
0000183800000001

>  <PUBCHEM_MMFF94_ENERGY>  (1) 
49.8355

>  <PUBCHEM_FEATURE_SELFOVERLAP>  (1) 
20.297

>  <PUBCHEM_SHAPE_FINGERPRINT>  (1) 
10354089 29 18260832596113221330
10968037 39 18411982481258891125
11401426 45 18411134753266767340
11471102 20 18334574633712655510
12107183 9 17617940235996500769
12236239 1 18410855460128187778
12251169 10 18410292514496094679
13760787 19 18412542128182410951
14251764 18 18413673509442982273
15048467 5 18410573989446671776
15196674 1 18338234856017832913
15242433 33 18411418405818621654
15536298 74 18342176627232498134
17802600 8 18410852161593713697
17834072 33 18341891922023344294
17834076 25 18410855464423142087
18186145 218 17749379408019082111
18522853 276 18413107255715698480
187816 3 16558751213384976091
200 152 18343017804971798683
20510252 161 17988083275314839529
20645477 70 18336825273848799718
21267235 1 18410864260516359171
23402539 116 18060413625577340237
23402655 69 18410852140250395429
23557571 272 17417819408957797360
23559900 14 18130219462624863216
26918003 58 17822013120654357401
300161 21 18411973663458910751
34797466 226 17274830202999797996
34934 24 18410851066376942790
3545911 37 18410856559639809070
4214541 1 18411418401739756765
42788 4 18410855460128181284
474 4 17895480331559634740
5104073 3 18337389451840465611
542803 24 18410292510174779468
69090 78 18342172267708707015
9709674 26 18412832394941657718

>  <PUBCHEM_SHAPE_MULTIPOLES>  (1) 
317.53
11
1.39
0.66
0
0.16
0
-1.98
0
0
0
0
0.02
-0.5

>  <PUBCHEM_SHAPE_SELFOVERLAP>  (1) 
692.758

>  <PUBCHEM_SHAPE_VOLUME>  (1) 
173.4

>  <PUBCHEM_COORDINATE_TYPE>  (1) 
2
5
10

$$$$
