6205
     RDKit          2D

 10  9  0  0  1  0  0  0  0  0999 V2000
    0.0000    0.0000    0.0000 S   0  0  0  0  0  0  0  0  0  0  0  0
    0.0000    0.0000    0.0000 O   0  0  0  0  0  0  0  0  0  0  0  0
    0.0000    0.0000    0.0000 O   0  0  0  0  0  0  0  0  0  0  0  0
    0.0000    0.0000    0.0000 N   0  0  0  0  0  0  0  0  0  0  0  0
    0.0000    0.0000    0.0000 C   0  0  0  0  0  0  0  0  0  0  0  0
    0.0000    0.0000    0.0000 C   0  0  0  0  0  0  0  0  0  0  0  0
    0.0000    0.0000    0.0000 C   0  0  0  0  0  0  0  0  0  0  0  0
    0.0000    0.0000    0.0000 C   0  0  0  0  0  0  0  0  0  0  0  0
    0.0000    0.0000    0.0000 C   0  0  0  0  0  0  0  0  0  0  0  0
    0.0000    0.0000    0.0000 C   0  0  0  0  0  0  0  0  0  0  0  0
  1  7  1  0
  1  9  1  0
  2  8  1  0
  3  8  2  0
  4  6  1  0
  5  6  1  0
  5  7  1  0
  6  8  1  0
  9 10  1  0
M  END
>  <PUBCHEM_COMPOUND_CID>  (1) 
6205

>  <PUBCHEM_CONFORMER_RMSD>  (1) 
0.6

>  <PUBCHEM_CONFORMER_DIVERSEORDER>  (1) 
26
137
4
53
122
69
135
96
114
9
38
131
54
129
109
25
75
95
78
100
107
67
116
14
128
130
50
139
99
136
58
28
119
85
94
16
76
90
87
127
113
23
18
124
81
10
123
92
120
105
84
112
79
83
62
82
60
132
19
27
88
93
77
125
45
138
106
1
34
39
121
118
115
66
103
97
111
61
33
12
133
65
32
80
5
3
47
57
36
134
98
29
2
49
104
91
22
52
102
21
17
31
117
64
44
6
126
59
74
42
41
20
110
15
7
56
13
40
35
89
11
55
24
71
68
43
73
48
37
108
46
8
63
101
30
70
51
72
86

>  <PUBCHEM_MMFF94_PARTIAL_CHARGES>  (1) 
11
1 -0.46
16 0.36
17 0.36
2 -0.65
23 0.5
3 -0.57
4 -0.99
6 0.33
7 0.23
8 0.66
9 0.23

>  <PUBCHEM_EFFECTIVE_ROTOR_COUNT>  (1) 
5

>  <PUBCHEM_PHARMACOPHORE_FEATURES>  (1) 
7
1 10 hydrophobe
1 2 acceptor
1 3 acceptor
1 4 cation
1 4 donor
3 2 3 8 anion
4 1 5 7 9 hydrophobe

>  <PUBCHEM_HEAVY_ATOM_COUNT>  (1) 
10

>  <PUBCHEM_ATOM_DEF_STEREO_COUNT>  (1) 
0

>  <PUBCHEM_ATOM_UDEF_STEREO_COUNT>  (1) 
1

>  <PUBCHEM_BOND_DEF_STEREO_COUNT>  (1) 
0

>  <PUBCHEM_BOND_UDEF_STEREO_COUNT>  (1) 
0

>  <PUBCHEM_ISOTOPIC_ATOM_COUNT>  (1) 
0

>  <PUBCHEM_COMPONENT_COUNT>  (1) 
1

>  <PUBCHEM_CACTVS_TAUTO_COUNT>  (1) 
1

$$$$
