6206
     RDKit          3D

 14 14  0  0  0  0  0  0  0  0999 V2000
   -1.5295   -0.6438   -0.0033 O   0  0  0  0  0  0  0  0  0  0  0  0
   -4.8911    0.3111    0.0068 O   0  0  0  0  0  0  0  0  0  0  0  0
   -3.9313   -1.6679   -0.0028 O   0  0  0  0  0  0  0  0  0  0  0  0
    4.5184    1.1747   -0.0026 O   0  0  0  0  0  0  0  0  0  0  0  0
   -3.8474   -0.4049    0.0020 N   0  0  0  0  0  0  0  0  0  0  0  0
    1.9637    0.1406   -0.0051 N   0  0  0  0  0  0  0  0  0  0  0  0
    3.0682   -0.6402   -0.0083 N   0  0  0  0  0  0  0  0  0  0  0  0
   -0.4399    0.1447   -0.0026 C   0  0  0  0  0  0  0  0  0  0  0  0
   -0.7501    1.4643    0.0020 C   0  0  0  0  0  0  0  0  0  0  0  0
   -2.5911    0.2042    0.0010 C   0  0  0  0  0  0  0  0  0  0  0  0
   -2.1646    1.5120    0.0044 C   0  0  0  0  0  0  0  0  0  0  0  0
    0.8517   -0.5216   -0.0068 C   0  0  0  0  0  0  0  0  0  0  0  0
    4.3098   -0.0361   -0.0068 C   0  0  0  0  0  0  0  0  0  0  0  0
    5.4331   -1.0370    0.0221 C   0  0  0  0  0  0  0  0  0  0  0  0
  1  8  1  0
  1 10  1  0
  2  5  1  0
  3  5  2  0
  4 13  2  0
  5 10  1  0
  6  7  1  0
  6 12  2  0
  7 13  1  0
  8  9  2  0
  8 12  1  0
  9 11  1  0
 10 11  2  0
 13 14  1  0
M  CHG  2   2  -1   5   1
M  END
>  <PUBCHEM_COMPOUND_CID>  (1) 
6206

>  <PUBCHEM_CONFORMER_RMSD>  (1) 
0.6

>  <PUBCHEM_CONFORMER_DIVERSEORDER>  (1) 
1
2
5
3
4

>  <PUBCHEM_MMFF94_PARTIAL_CHARGES>  (1) 
18
1 -0.28
10 0.22
11 -0.15
12 0.47
13 0.57
14 0.06
15 0.15
16 0.15
17 0.06
18 0.37
2 -0.52
3 -0.52
4 -0.57
5 0.96
6 -0.51
7 -0.37
8 0.05
9 -0.15

>  <PUBCHEM_EFFECTIVE_ROTOR_COUNT>  (1) 
4

>  <PUBCHEM_PHARMACOPHORE_FEATURES>  (1) 
8
1 1 acceptor
1 2 acceptor
1 2 anion
1 3 acceptor
1 4 acceptor
1 6 acceptor
1 7 donor
5 1 8 9 10 11 rings

>  <PUBCHEM_HEAVY_ATOM_COUNT>  (1) 
14

>  <PUBCHEM_ATOM_DEF_STEREO_COUNT>  (1) 
0

>  <PUBCHEM_ATOM_UDEF_STEREO_COUNT>  (1) 
0

>  <PUBCHEM_BOND_DEF_STEREO_COUNT>  (1) 
0

>  <PUBCHEM_BOND_UDEF_STEREO_COUNT>  (1) 
1

>  <PUBCHEM_ISOTOPIC_ATOM_COUNT>  (1) 
0

>  <PUBCHEM_COMPONENT_COUNT>  (1) 
1

>  <PUBCHEM_CACTVS_TAUTO_COUNT>  (1) 
2

>  <PUBCHEM_CONFORMER_ID>  (1) 
0000183E00000001

>  <PUBCHEM_MMFF94_ENERGY>  (1) 
19.4541

>  <PUBCHEM_FEATURE_SELFOVERLAP>  (1) 
40.694

>  <PUBCHEM_SHAPE_FINGERPRINT>  (1) 
11401426 45 18260545628284802213
13081056 2 18413107256332902832
13167823 11 18408881807230103290
13214271 11 18273494555303148373
13533116 47 17458899341204589570
14123238 8 17989487424740912278
14943859 89 9943805590520605805
17834072 33 18333171678614090190
17834076 25 11241973668416325842
187816 3 17095243618322445961
1986462 14 18337956692909385020
200 152 17894349977460164379
20645477 56 18116152160725386149
20645477 70 18270966739864968382
22485316 2 18409445886363966179
2297311 6 18201449047398149852
23402539 116 18410005542124970511
23557571 272 18270968938154929452
23559900 14 18408601487657149904
42 15 18410293593049909038
4214541 1 18338516335685305632
42788 4 18410293605438906221
4463277 17 18410012135469546769
5104073 3 18413107238984106120
5374978 207 18409724067586057816
77779 3 18412265013103492080

>  <PUBCHEM_SHAPE_MULTIPOLES>  (1) 
249.69
11
1.35
0.57
7.81
0.14
0
-2.39
0.04
-0.52
0
0.04
0.01
-0.01

>  <PUBCHEM_SHAPE_SELFOVERLAP>  (1) 
515.868

>  <PUBCHEM_SHAPE_VOLUME>  (1) 
143.9

>  <PUBCHEM_COORDINATE_TYPE>  (1) 
2
5
10

$$$$
