6210
     RDKit          3D

  7  7  0  0  0  0  0  0  0  0999 V2000
   -0.6056    1.1044    0.0001 N   0  0  0  0  0  0  0  0  0  0  0  0
    0.7377    1.1462   -0.0002 N   0  0  0  0  0  0  0  0  0  0  0  0
   -1.1176   -0.1599    0.0001 C   0  0  0  0  0  0  0  0  0  0  0  0
    1.0812   -0.1446   -0.0006 C   0  0  0  0  0  0  0  0  0  0  0  0
   -0.0340   -1.0038   -0.0006 C   0  0  0  0  0  0  0  0  0  0  0  0
   -2.5663   -0.4195    0.0004 C   0  0  0  0  0  0  0  0  0  0  0  0
    2.5047   -0.5229    0.0008 C   0  0  0  0  0  0  0  0  0  0  0  0
  1  2  1  0
  1  3  1  0
  2  4  2  0
  3  5  2  0
  3  6  1  0
  4  5  1  0
  4  7  1  0
M  END
>  <PUBCHEM_COMPOUND_CID>  (1) 
6210

>  <PUBCHEM_CONFORMER_RMSD>  (1) 
0.4

>  <PUBCHEM_CONFORMER_DIVERSEORDER>  (1) 
1

>  <PUBCHEM_MMFF94_PARTIAL_CHARGES>  (1) 
9
1 0.3
2 -0.71
3 -0.33
4 0.11
5 -0.15
6 0.18
7 0.18
8 0.15
9 0.27

>  <PUBCHEM_EFFECTIVE_ROTOR_COUNT>  (1) 
0

>  <PUBCHEM_PHARMACOPHORE_FEATURES>  (1) 
3
1 1 donor
1 2 acceptor
5 1 2 3 4 5 rings

>  <PUBCHEM_HEAVY_ATOM_COUNT>  (1) 
7

>  <PUBCHEM_ATOM_DEF_STEREO_COUNT>  (1) 
0

>  <PUBCHEM_ATOM_UDEF_STEREO_COUNT>  (1) 
0

>  <PUBCHEM_BOND_DEF_STEREO_COUNT>  (1) 
0

>  <PUBCHEM_BOND_UDEF_STEREO_COUNT>  (1) 
0

>  <PUBCHEM_ISOTOPIC_ATOM_COUNT>  (1) 
0

>  <PUBCHEM_COMPONENT_COUNT>  (1) 
1

>  <PUBCHEM_CACTVS_TAUTO_COUNT>  (1) 
1

>  <PUBCHEM_CONFORMER_ID>  (1) 
0000184200000001

>  <PUBCHEM_MMFF94_ENERGY>  (1) 
2.7274

>  <PUBCHEM_FEATURE_SELFOVERLAP>  (1) 
15.223

>  <PUBCHEM_SHAPE_FINGERPRINT>  (1) 
16714656 1 18412266116535709774
20096714 4 18267304420470420873
21040471 1 18122625225805387813
23552423 10 18044384816192586030
29004967 10 18410015441850481859
5460574 1 9295289443207803970

>  <PUBCHEM_SHAPE_MULTIPOLES>  (1) 
134.09
3.04
1.11
0.59
0.14
0.19
0
-0.69
0
-0.05
0
0
-0.03
0

>  <PUBCHEM_SHAPE_SELFOVERLAP>  (1) 
270.896

>  <PUBCHEM_SHAPE_VOLUME>  (1) 
80.8

>  <PUBCHEM_COORDINATE_TYPE>  (1) 
2
5
10

$$$$
