6244
     RDKit          3D

 20 21  0  0  0  0  0  0  0  0999 V2000
    1.7223    0.7866   -3.0478 Cl  0  0  0  0  0  0  0  0  0  0  0  0
    1.7996   -1.0386    2.9629 Cl  0  0  0  0  0  0  0  0  0  0  0  0
    4.0649    1.7808   -1.1398 Cl  0  0  0  0  0  0  0  0  0  0  0  0
    4.1046    0.8640    1.8748 Cl  0  0  0  0  0  0  0  0  0  0  0  0
   -1.2518   -1.7576   -0.4995 N   0  0  0  0  0  0  0  0  0  0  0  0
   -3.2642    1.3519    0.3986 N   0  0  0  0  0  0  0  0  0  0  0  0
   -2.4808   -0.9002   -0.2226 C   0  0  0  0  0  0  0  0  0  0  0  0
   -0.3671   -1.0899   -1.5953 C   0  0  0  0  0  0  0  0  0  0  0  0
   -0.3363   -1.8066    0.7610 C   0  0  0  0  0  0  0  0  0  0  0  0
   -2.0683    0.4998    0.1882 C   0  0  0  0  0  0  0  0  0  0  0  0
    0.8009   -0.5041   -0.8747 C   0  0  0  0  0  0  0  0  0  0  0  0
    0.8183   -0.9103    0.4610 C   0  0  0  0  0  0  0  0  0  0  0  0
   -1.6884   -3.1484   -0.9169 C   0  0  0  0  0  0  0  0  0  0  0  0
   -4.0933    1.4568   -0.8892 C   0  0  0  0  0  0  0  0  0  0  0  0
   -4.1631    0.7685    1.4980 C   0  0  0  0  0  0  0  0  0  0  0  0
   -2.8564    2.7708    0.8196 C   0  0  0  0  0  0  0  0  0  0  0  0
    1.7922    0.3169   -1.3850 C   0  0  0  0  0  0  0  0  0  0  0  0
    1.8272   -0.5051    1.3183 C   0  0  0  0  0  0  0  0  0  0  0  0
    2.8111    0.7366   -0.5273 C   0  0  0  0  0  0  0  0  0  0  0  0
    2.8285    0.3284    0.8156 C   0  0  0  0  0  0  0  0  0  0  0  0
  1 17  1  0
  2 18  1  0
  3 19  1  0
  4 20  1  0
  5  7  1  0
  5  8  1  0
  5  9  1  0
  5 13  1  0
  6 10  1  0
  6 14  1  0
  6 15  1  0
  6 16  1  0
  7 10  1  0
  8 11  1  0
  9 12  1  0
 11 12  2  0
 11 17  1  0
 12 18  1  0
 17 19  2  0
 18 20  2  0
 19 20  1  0
M  CHG  2   5   1   6   1
M  END
>  <PUBCHEM_COMPOUND_CID>  (1) 
6244

>  <PUBCHEM_CONFORMER_RMSD>  (1) 
0.6

>  <PUBCHEM_CONFORMER_DIVERSEORDER>  (1) 
1
2
3

>  <PUBCHEM_MMFF94_PARTIAL_CHARGES>  (1) 
20
1 -0.18
10 0.5
11 -0.14
12 -0.14
13 0.5
14 0.5
15 0.5
16 0.5
17 0.18
18 0.18
19 0.18
2 -0.18
20 0.18
3 -0.18
4 -0.18
5 -1.01
6 -1.01
7 0.5
8 0.65
9 0.65

>  <PUBCHEM_EFFECTIVE_ROTOR_COUNT>  (1) 
3.6

>  <PUBCHEM_PHARMACOPHORE_FEATURES>  (1) 
4
1 5 cation
1 6 cation
5 5 8 9 11 12 rings
6 11 12 17 18 19 20 rings

>  <PUBCHEM_HEAVY_ATOM_COUNT>  (1) 
20

>  <PUBCHEM_ATOM_DEF_STEREO_COUNT>  (1) 
0

>  <PUBCHEM_ATOM_UDEF_STEREO_COUNT>  (1) 
0

>  <PUBCHEM_BOND_DEF_STEREO_COUNT>  (1) 
0

>  <PUBCHEM_BOND_UDEF_STEREO_COUNT>  (1) 
0

>  <PUBCHEM_ISOTOPIC_ATOM_COUNT>  (1) 
0

>  <PUBCHEM_COMPONENT_COUNT>  (1) 
1

>  <PUBCHEM_CACTVS_TAUTO_COUNT>  (1) 
1

>  <PUBCHEM_CONFORMER_ID>  (1) 
0000186400000001

>  <PUBCHEM_MMFF94_ENERGY>  (1) 
75.2113

>  <PUBCHEM_FEATURE_SELFOVERLAP>  (1) 
20.373

>  <PUBCHEM_SHAPE_FINGERPRINT>  (1) 
10165383 225 17629795389832519403
10382601 240 17458624484956831312
10498660 4 17988358166370741073
10764073 3 16186901564691405554
11221954 11 17487595636505829616
11471102 22 16226034575034834354
11578080 2 17557457484817581380
11640471 11 18187364337310244205
11725454 13 16629088080188820898
12400797 292 13398621749511718676
12730499 353 16415484865560571679
12788726 201 18119526789497051683
12892183 10 16877667846571341289
13134695 92 17194602949403668439
13294875 104 17629760076195154335
13965767 371 18044933476589418421
14341114 328 17895772758913934393
14739800 52 18051117388357711488
14787075 74 16529762898187178510
14817 1 13429002814934306951
14957384 54 18334850602177685725
15163728 17 17986967421611048776
15209294 21 18189318195669867688
15309172 13 16371566046041226014
15422964 175 15720220670420795938
15534591 1 18189064242537614974
16945 1 18199465643805763470
17357990 137 18040727977767211062
18186145 218 17060340678286966977
20600515 1 17410496902367709127
20739085 24 16660362567850109716
21330990 113 17045131997266038554
21427221 339 18115297878660284296
21524375 3 17845643747344390999
21756936 100 17316510549761956252
22182313 1 16557909090683759480
23114952 82 16200158646737961013
23526113 38 16916524561447320206
23557571 272 17773049750176393095
23559900 14 17988653995496803172
238 59 15051436241546437720
25 1 16916519055410106931
2748010 2 14906499839160837558
31174 14 15285645429603077796
3323516 105 15339109152713331629
3797600 57 17680465326626273465
427121 178 18201444627591777305
539174 4 17897136118692764432
568465 68 15068332402465490344
6442390 28 17917164844501979123
7808743 9 18342187703505073392
81228 2 17915175939467780975

>  <PUBCHEM_SHAPE_MULTIPOLES>  (1) 
409.11
7.24
2.59
2.49
1.89
0.09
0.51
1.44
-5.44
-2.33
-0.01
2.3
-0.19
-1.35

>  <PUBCHEM_SHAPE_SELFOVERLAP>  (1) 
809.586

>  <PUBCHEM_SHAPE_VOLUME>  (1) 
249.6

>  <PUBCHEM_COORDINATE_TYPE>  (1) 
2
5
10

$$$$
