6245
     RDKit          3D

 19 21  0  0  1  0  0  0  0  0999 V2000
    2.0103   -0.5191   -0.9495 O   0  0  0  0  0  0  0  0  0  0  0  0
    1.1611    2.2461    1.1844 O   0  0  0  0  0  0  0  0  0  0  0  0
    3.3477    2.1711   -0.4275 O   0  0  0  0  0  0  0  0  0  0  0  0
    3.8541   -2.5564   -0.3903 O   0  0  0  0  0  0  0  0  0  0  0  0
   -0.2044   -0.3130   -0.1232 N   0  0  0  0  0  0  0  0  0  0  0  0
   -1.7432    1.4962   -0.5433 N   0  0  0  0  0  0  0  0  0  0  0  0
   -4.0732    0.8573   -0.2426 N   0  0  0  0  0  0  0  0  0  0  0  0
   -4.7278   -1.3458    0.4038 N   0  0  0  0  0  0  0  0  0  0  0  0
    1.0479    0.3925   -0.3856 C   0  0  0  0  0  0  0  0  0  0  0  0
    1.6996    0.9816    0.8561 C   0  0  0  0  0  0  0  0  0  0  0  0
    3.1534    1.0475    0.4314 C   0  0  0  0  0  0  0  0  0  0  0  0
    3.3113   -0.2302   -0.3869 C   0  0  0  0  0  0  0  0  0  0  0  0
    3.7466   -1.4229    0.4530 C   0  0  0  0  0  0  0  0  0  0  0  0
   -1.4643    0.2251   -0.2056 C   0  0  0  0  0  0  0  0  0  0  0  0
   -0.3014   -1.6327    0.2479 C   0  0  0  0  0  0  0  0  0  0  0  0
   -2.3808   -0.7676    0.1183 C   0  0  0  0  0  0  0  0  0  0  0  0
   -1.6362   -1.9405    0.4043 C   0  0  0  0  0  0  0  0  0  0  0  0
   -3.7275   -0.4082    0.0900 C   0  0  0  0  0  0  0  0  0  0  0  0
   -3.0731    1.7191   -0.5346 C   0  0  0  0  0  0  0  0  0  0  0  0
  1  9  1  0
  1 12  1  0
  2 10  1  0
  3 11  1  0
  4 13  1  0
  5  9  1  0
  5 14  1  0
  5 15  1  0
  6 14  2  0
  6 19  1  0
  7 18  1  0
  7 19  2  0
  8 18  1  0
  9 10  1  0
 10 11  1  0
 11 12  1  0
 12 13  1  0
 14 16  1  0
 15 17  2  0
 16 17  1  0
 16 18  2  0
M  END
>  <PUBCHEM_COMPOUND_CID>  (1) 
6245

>  <PUBCHEM_CONFORMER_RMSD>  (1) 
0.6

>  <PUBCHEM_CONFORMER_DIVERSEORDER>  (1) 
3
11
15
4
9
12
5
1
10
13
2
6
14
8
7

>  <PUBCHEM_MMFF94_PARTIAL_CHARGES>  (1) 
26
1 -0.56
10 0.28
11 0.28
12 0.28
13 0.28
14 0.11
15 -0.3
17 -0.15
18 0.41
19 0.47
2 -0.68
26 0.15
27 0.4
28 0.4
29 0.15
3 -0.68
30 0.4
31 0.15
32 0.4
33 0.4
4 -0.68
5 0.05
6 -0.57
7 -0.62
8 -0.9
9 0.54

>  <PUBCHEM_EFFECTIVE_ROTOR_COUNT>  (1) 
3

>  <PUBCHEM_PHARMACOPHORE_FEATURES>  (1) 
14
1 1 acceptor
1 2 acceptor
1 2 donor
1 3 acceptor
1 3 donor
1 4 acceptor
1 4 donor
1 8 cation
1 8 donor
3 5 6 14 cation
3 6 7 19 cation
5 1 9 10 11 12 rings
5 5 14 15 16 17 rings
6 6 7 14 16 18 19 rings

>  <PUBCHEM_HEAVY_ATOM_COUNT>  (1) 
19

>  <PUBCHEM_ATOM_DEF_STEREO_COUNT>  (1) 
4

>  <PUBCHEM_ATOM_UDEF_STEREO_COUNT>  (1) 
0

>  <PUBCHEM_BOND_DEF_STEREO_COUNT>  (1) 
0

>  <PUBCHEM_BOND_UDEF_STEREO_COUNT>  (1) 
0

>  <PUBCHEM_ISOTOPIC_ATOM_COUNT>  (1) 
0

>  <PUBCHEM_COMPONENT_COUNT>  (1) 
1

>  <PUBCHEM_CACTVS_TAUTO_COUNT>  (1) 
4

>  <PUBCHEM_CONFORMER_ID>  (1) 
0000186500000003

>  <PUBCHEM_MMFF94_ENERGY>  (1) 
45.7018

>  <PUBCHEM_FEATURE_SELFOVERLAP>  (1) 
71.34

>  <PUBCHEM_SHAPE_FINGERPRINT>  (1) 
10498660 4 18113891663592351093
10608611 8 18411133675230294364
1100329 8 16538483588752748018
11578080 2 14260516708650387090
12403259 226 18410851058161359709
12403259 415 18333729096475846837
12403260 363 18411691063527900695
12507560 14 18059856130095500854
13134695 92 17703211924503021936
13581323 91 18261390082978992415
13675066 3 18271515421256173442
14866123 147 16974214592538470186
15196674 1 18408885140039893645
15219456 202 18341610434014071036
15442244 35 18338517435181070248
15536298 74 18409727352761395770
16945 1 18124303063427579072
17804303 29 18335987475757403758
1813 80 16515673404781980794
18186145 218 18343027657326205789
19049666 15 18411979169796921008
19591789 44 18408603643530844035
200 152 17704062985188923935
20510252 161 18410576210504043697
20645477 70 18273502273322696470
21267235 1 18408612456555672570
21501502 16 18341044232986723574
23402539 116 18338508751158339063
23559900 14 18411416190153177348
3004659 81 17970355815703824078
3286 77 18413668011088303837
335352 9 18265613169823704701
350125 39 18263366902149533285
474 4 16155127220784492836
5104073 3 18409450280315828017
633830 44 18334286553076224359
69090 78 18272366516434280343
7364860 26 18411419540370131958
81228 2 17971748028745524331
9709674 26 18408608084289664122

>  <PUBCHEM_SHAPE_MULTIPOLES>  (1) 
347.61
8.11
2.35
0.83
1.69
0.07
0.07
1.23
-0.16
-1.01
0.14
-0.28
-0.16
0.76

>  <PUBCHEM_SHAPE_SELFOVERLAP>  (1) 
757.423

>  <PUBCHEM_SHAPE_VOLUME>  (1) 
187.5

>  <PUBCHEM_COORDINATE_TYPE>  (1) 
2
5
10

$$$$
