6259
     RDKit          3D

 10 10  0  0  0  0  0  0  0  0999 V2000
    4.0623    0.3969   -0.0480 Br  0  0  0  0  0  0  0  0  0  0  0  0
    1.7543   -1.4566    0.0245 O   0  0  0  0  0  0  0  0  0  0  0  0
   -0.1650   -0.1115    0.0057 C   0  0  0  0  0  0  0  0  0  0  0  0
   -0.6959    1.1785    0.0095 C   0  0  0  0  0  0  0  0  0  0  0  0
   -1.0168   -1.2162   -0.0070 C   0  0  0  0  0  0  0  0  0  0  0  0
    1.2763   -0.3046    0.0147 C   0  0  0  0  0  0  0  0  0  0  0  0
   -2.0783    1.3639    0.0007 C   0  0  0  0  0  0  0  0  0  0  0  0
   -2.3993   -1.0306   -0.0159 C   0  0  0  0  0  0  0  0  0  0  0  0
   -2.9299    0.2594   -0.0121 C   0  0  0  0  0  0  0  0  0  0  0  0
    2.1923    0.9209    0.0280 C   0  0  0  0  0  0  0  0  0  0  0  0
  1 10  1  0
  2  6  2  0
  3  4  2  0
  3  5  1  0
  3  6  1  0
  4  7  1  0
  5  8  2  0
  6 10  1  0
  7  9  2  0
  8  9  1  0
M  END
>  <PUBCHEM_COMPOUND_CID>  (1) 
6259

>  <PUBCHEM_CONFORMER_RMSD>  (1) 
0.4

>  <PUBCHEM_CONFORMER_DIVERSEORDER>  (1) 
1
12
13
2
11
4
10
7
8
6
3
5
9

>  <PUBCHEM_MMFF94_PARTIAL_CHARGES>  (1) 
15
1 -0.23
10 0.29
11 0.15
12 0.15
13 0.15
14 0.15
15 0.15
2 -0.57
3 0.09
4 -0.15
5 -0.15
6 0.42
7 -0.15
8 -0.15
9 -0.15

>  <PUBCHEM_EFFECTIVE_ROTOR_COUNT>  (1) 
2

>  <PUBCHEM_PHARMACOPHORE_FEATURES>  (1) 
3
1 1 hydrophobe
1 2 acceptor
6 3 4 5 7 8 9 rings

>  <PUBCHEM_HEAVY_ATOM_COUNT>  (1) 
10

>  <PUBCHEM_ATOM_DEF_STEREO_COUNT>  (1) 
0

>  <PUBCHEM_ATOM_UDEF_STEREO_COUNT>  (1) 
0

>  <PUBCHEM_BOND_DEF_STEREO_COUNT>  (1) 
0

>  <PUBCHEM_BOND_UDEF_STEREO_COUNT>  (1) 
0

>  <PUBCHEM_ISOTOPIC_ATOM_COUNT>  (1) 
0

>  <PUBCHEM_COMPONENT_COUNT>  (1) 
1

>  <PUBCHEM_CACTVS_TAUTO_COUNT>  (1) 
2

>  <PUBCHEM_CONFORMER_ID>  (1) 
0000187300000001

>  <PUBCHEM_MMFF94_ENERGY>  (1) 
25.9378

>  <PUBCHEM_FEATURE_SELFOVERLAP>  (1) 
15.223

>  <PUBCHEM_SHAPE_FINGERPRINT>  (1) 
10857977 72 18339071709105310089
11062470 55 15213012765219300380
12897270 3 18411699915233925636
12932764 1 17489296499489489138
13024252 1 16081085991731592369
13380535 21 18339935826471127898
13380535 76 18410009931655588106
14325111 11 18410575102375886436
14390081 3 18413669114805396856
15775835 57 18409453548469623248
16945 1 18410854403782569273
19973954 147 18339644442820268521
20201158 50 18413106169078221614
20645464 45 18130794459713272405
20871998 184 18201443639781461007
21040471 1 18338797789118491113
23235685 24 18410005537740312644
23402539 116 18340758329740416959
23402655 69 18269539565139878845
23463225 33 18334009480704651496
23552423 10 18261674779134027035
2748010 2 18338238146036634895
369184 2 18334010571294009355
5084963 1 18128248996011418835
6333449 129 18413387657008431965
7364860 26 18269836407124582102

>  <PUBCHEM_SHAPE_MULTIPOLES>  (1) 
205.87
5.63
1.47
0.62
4.53
0.05
0
-0.65
0.09
-0.43
0
0.05
-0.02
-0.01

>  <PUBCHEM_SHAPE_SELFOVERLAP>  (1) 
410.148

>  <PUBCHEM_SHAPE_VOLUME>  (1) 
125.3

>  <PUBCHEM_COORDINATE_TYPE>  (1) 
2
5
10

$$$$
