626
     RDKit          2D

 12 11  0  0  1  0  0  0  0  0999 V2000
    0.0000    0.0000    0.0000 O   0  0  0  0  0  0  0  0  0  0  0  0
    0.0000    0.0000    0.0000 O   0  0  0  0  0  0  0  0  0  0  0  0
    0.0000    0.0000    0.0000 O   0  0  0  0  0  0  0  0  0  0  0  0
    0.0000    0.0000    0.0000 O   0  0  0  0  0  0  0  0  0  0  0  0
    0.0000    0.0000    0.0000 O   0  0  0  0  0  0  0  0  0  0  0  0
    0.0000    0.0000    0.0000 O   0  0  0  0  0  0  0  0  0  0  0  0
    0.0000    0.0000    0.0000 C   0  0  0  0  0  0  0  0  0  0  0  0
    0.0000    0.0000    0.0000 C   0  0  0  0  0  0  0  0  0  0  0  0
    0.0000    0.0000    0.0000 C   0  0  0  0  0  0  0  0  0  0  0  0
    0.0000    0.0000    0.0000 C   0  0  0  0  0  0  0  0  0  0  0  0
    0.0000    0.0000    0.0000 C   0  0  0  0  0  0  0  0  0  0  0  0
    0.0000    0.0000    0.0000 C   0  0  0  0  0  0  0  0  0  0  0  0
  1  7  1  0
  2  8  1  0
  3  9  1  0
  4 11  1  0
  5 12  1  0
  6 12  2  0
  7  8  1  0
  7  9  1  0
  8 10  1  0
  9 11  1  0
 10 12  1  0
M  END
>  <PUBCHEM_COMPOUND_CID>  (1) 
626

>  <PUBCHEM_CONFORMER_RMSD>  (1) 
0.6

>  <PUBCHEM_CONFORMER_DIVERSEORDER>  (1) 
48
25
272
46
211
209
276
141
354
123
375
360
39
361
19
350
204
13
292
334
188
174
241
105
218
355
275
314
242
92
358
287
57
352
15
138
327
330
69
336
217
258
59
161
11
388
34
230
134
337
77
309
277
157
181
102
291
302
390
70
245
144
342
381
256
4
91
270
333
265
393
86
259
321
345
248
107
294
16
253
351
106
383
274
98
41
62
182
279
387
143
118
305
18
347
282
356
5
329
319
2
99
365
171
185
206
29
176
255
338
72
267
22
90
88
167
193
197
306
93
112
3
380
290
280
320
377
368
38
30
261
300
307
234
9
374
389
384
20
61
43
56
79
378
172
137
293
224
310
146
71
195
63
162
346
198
251
199
73
26
232
10
17
119
40
8
304
308
394
295
189
177
266
128
130
344
213
247
208
60
175
192
150
313
68
127
299
335
113
233
42
32
163
52
109
315
226
222
74
385
326
288
376
156
191
54
135
348
268
331
194
379
1
120
180
100
165
103
235
27
111
225
278
142
366
23
264
362
31
296
200
238
89
170
183
273
303
159
6
80
124
343
263
341
108
216
66
201
324
121
269
297
386
95
257
148
283
190
202
97
298
152
203
372
250
149
392
370
212
35
12
364
49
133
260
349
81
37
155
322
187
58
7
363
301
129
317
28
339
82
207
85
219
332
262
153
369
76
36
228
367
244
179
357
169
246
147
114
115
64
210
249
140
281
340
51
184
168
178
229
166
243
164
186
215
312
359
50
231
240
131
323
154
353
236
24
65
145
45
311
116
53
221
139
125
84
136
271
21
75
104
87
285
47
33
286
254
173
14
318
223
289
214
220
117
101
132
160
67
328
371
196
237
122
284
78
110
158
94
83
227
252
126
373
44
55
239
205
316
151
391
325
96
382

>  <PUBCHEM_MMFF94_PARTIAL_CHARGES>  (1) 
17
1 -0.68
10 0.06
11 0.28
12 0.66
2 -0.68
20 0.4
21 0.4
22 0.4
23 0.4
24 0.5
3 -0.68
4 -0.68
5 -0.65
6 -0.57
7 0.28
8 0.28
9 0.28

>  <PUBCHEM_EFFECTIVE_ROTOR_COUNT>  (1) 
5

>  <PUBCHEM_PHARMACOPHORE_FEATURES>  (1) 
11
1 1 acceptor
1 1 donor
1 2 acceptor
1 2 donor
1 3 acceptor
1 3 donor
1 4 acceptor
1 4 donor
1 5 acceptor
1 6 acceptor
3 5 6 12 anion

>  <PUBCHEM_HEAVY_ATOM_COUNT>  (1) 
12

>  <PUBCHEM_ATOM_DEF_STEREO_COUNT>  (1) 
0

>  <PUBCHEM_ATOM_UDEF_STEREO_COUNT>  (1) 
3

>  <PUBCHEM_BOND_DEF_STEREO_COUNT>  (1) 
0

>  <PUBCHEM_BOND_UDEF_STEREO_COUNT>  (1) 
0

>  <PUBCHEM_ISOTOPIC_ATOM_COUNT>  (1) 
0

>  <PUBCHEM_COMPONENT_COUNT>  (1) 
1

>  <PUBCHEM_CACTVS_TAUTO_COUNT>  (1) 
1

$$$$
