6260
     RDKit          3D

 15 16  0  0  1  0  0  0  0  0999 V2000
   -3.9500    0.6709    0.4736 O   0  0  0  0  0  0  0  0  0  0  0  0
   -0.3222    0.3577    0.1998 O   0  0  0  0  0  0  0  0  0  0  0  0
    0.7629    2.3301   -0.2811 O   0  0  0  0  0  0  0  0  0  0  0  0
    3.0333   -1.8225    0.2863 N   0  0  0  0  0  0  0  0  0  0  0  0
   -2.6688    0.0188    0.4929 C   0  0  0  0  0  0  0  0  0  0  0  0
   -2.7514   -1.1062   -0.5243 C   0  0  0  0  0  0  0  0  0  0  0  0
   -4.1960   -1.5202   -0.3978 C   0  0  0  0  0  0  0  0  0  0  0  0
   -4.8865   -0.1882   -0.1936 C   0  0  0  0  0  0  0  0  0  0  0  0
   -1.5743    1.0251    0.1948 C   0  0  0  0  0  0  0  0  0  0  0  0
    0.7715    1.1303   -0.0538 C   0  0  0  0  0  0  0  0  0  0  0  0
    2.0130    0.3165   -0.0215 C   0  0  0  0  0  0  0  0  0  0  0  0
    3.2285    0.9128   -0.2548 C   0  0  0  0  0  0  0  0  0  0  0  0
    1.9425   -1.0253    0.2413 C   0  0  0  0  0  0  0  0  0  0  0  0
    4.3738    0.1252   -0.2171 C   0  0  0  0  0  0  0  0  0  0  0  0
    4.2237   -1.2250    0.0553 C   0  0  0  0  0  0  0  0  0  0  0  0
  1  5  1  0
  1  8  1  0
  2  9  1  0
  2 10  1  0
  3 10  2  0
  4 13  2  0
  4 15  1  0
  5  6  1  0
  5  9  1  0
  6  7  1  0
  7  8  1  0
 10 11  1  0
 11 12  2  0
 11 13  1  0
 12 14  1  0
 14 15  2  0
M  END
>  <PUBCHEM_COMPOUND_CID>  (1) 
6260

>  <PUBCHEM_CONFORMER_RMSD>  (1) 
0.6

>  <PUBCHEM_CONFORMER_DIVERSEORDER>  (1) 
3
178
92
219
212
195
113
54
221
174
210
14
216
169
75
44
122
91
36
111
161
142
2
213
206
98
211
40
93
78
136
77
217
218
183
191
140
112
167
131
42
21
114
31
165
189
220
102
109
214
43
107
202
204
133
86
186
1
87
110
28
79
203
120
194
82
84
207
119
4
170
188
144
85
23
88
130
70
100
192
182
153
190
55
205
124
199
51
215
123
72
208
90
180
157
162
159
168
67
200
198
106
147
96
20
95
108
152
173
57
38
35
126
52
74
150
201
139
71
135
172
94
101
176
154
143
34
163
25
222
151
46
171
37
13
141
197
49
26
53
29
181
193
125
56
196
166
69
10
81
19
41
145
22
164
179
121
18
209
127
8
175
160
73
64
24
27
97
158
80
104
137
66
187
132
16
83
89
128
17
32
134
149
68
76
105
62
7
185
146
63
116
59
12
60
129
33
15
103
138
30
9
61
39
115
65
58
48
118
99
117
11
5
45
184
177
156
50
47
148
6
155

>  <PUBCHEM_MMFF94_PARTIAL_CHARGES>  (1) 
17
1 -0.56
10 0.63
11 0.09
12 -0.15
13 0.16
14 -0.15
15 0.16
2 -0.43
25 0.15
26 0.15
27 0.15
28 0.15
3 -0.57
4 -0.62
5 0.28
8 0.28
9 0.28

>  <PUBCHEM_EFFECTIVE_ROTOR_COUNT>  (1) 
5

>  <PUBCHEM_PHARMACOPHORE_FEATURES>  (1) 
5
1 1 acceptor
1 3 acceptor
1 4 acceptor
5 1 5 6 7 8 rings
6 4 11 12 13 14 15 rings

>  <PUBCHEM_HEAVY_ATOM_COUNT>  (1) 
15

>  <PUBCHEM_ATOM_DEF_STEREO_COUNT>  (1) 
0

>  <PUBCHEM_ATOM_UDEF_STEREO_COUNT>  (1) 
1

>  <PUBCHEM_BOND_DEF_STEREO_COUNT>  (1) 
0

>  <PUBCHEM_BOND_UDEF_STEREO_COUNT>  (1) 
0

>  <PUBCHEM_ISOTOPIC_ATOM_COUNT>  (1) 
0

>  <PUBCHEM_COMPONENT_COUNT>  (1) 
1

>  <PUBCHEM_CACTVS_TAUTO_COUNT>  (1) 
1

>  <PUBCHEM_CONFORMER_ID>  (1) 
0000187400000003

>  <PUBCHEM_MMFF94_ENERGY>  (1) 
37.1522

>  <PUBCHEM_FEATURE_SELFOVERLAP>  (1) 
25.373

>  <PUBCHEM_SHAPE_FINGERPRINT>  (1) 
10465860 250 17203609285454086553
10616163 171 18270964656151929463
11471102 20 18333732437918029428
11806522 49 18410292540519235856
12815109 37 18410009935702239299
13167823 11 18342176678434333159
13690532 89 18411699893985864459
14251717 144 18335420188150634010
14252887 29 17918002663402618646
14576447 43 18410854403830256542
15196674 1 18411419522583971591
15242433 33 18410576188686114303
15375462 189 18411702084118505346
15477762 27 18335984254637348724
15757776 16 18260827086092290722
17834072 33 18341050804070356636
17834072 8 18261946376471726501
1798214 20 18410570691033075319
18186145 218 16588025731648713625
19422 9 18413393124390984504
200 152 18342737429485649353
20281475 54 18410855455854514381
20645477 70 18408322168274337606
21250096 35 18342736312551526817
21267235 1 18411709776394707510
221490 88 18118410772056204067
22485316 2 18411698785615361201
2255824 54 18265618869193006940
22646028 1 18343864428851372139
22646028 28 18413387644229220007
22854114 59 11240001152697618011
23402539 116 18334852797306374252
23402655 69 18334576810928843244
23559900 14 18270955846941604521
2871803 45 18187643574788380706
2916195 48 11819570271876166694
4214541 1 18412263900617616473
4921388 177 16371015160788369155
5104073 3 18342177786635934827
573450 72 18060420197019558915
58051976 100 18410855508063833871
581208 293 18335420188387978456
7364860 26 18198339748304852880
76465 3 18115297861881510674
77779 3 18411420613626678761
83771 10 18410009918617530036
94968 8 18409449189526054754
9709674 26 18410301310653004939

>  <PUBCHEM_SHAPE_MULTIPOLES>  (1) 
286.1
10.17
1.75
0.68
4.16
0.09
0.01
-3.42
0.52
-0.56
0.08
0.13
-0.03
-0.62

>  <PUBCHEM_SHAPE_SELFOVERLAP>  (1) 
600.232

>  <PUBCHEM_SHAPE_VOLUME>  (1) 
161.9

>  <PUBCHEM_COORDINATE_TYPE>  (1) 
2
5
10

$$$$
