627
     RDKit          3D

 12 11  0  0  1  0  0  0  0  0999 V2000
   -1.5118   -1.6341   -0.7765 O   0  0  0  0  0  0  0  0  0  0  0  0
   -1.8092   -0.2870    1.7741 O   0  0  0  0  0  0  0  0  0  0  0  0
   -3.3094    1.4198   -1.0863 O   0  0  0  0  0  0  0  0  0  0  0  0
    0.9530   -1.7424    0.1502 O   0  0  0  0  0  0  0  0  0  0  0  0
    3.5092    1.6400    0.1430 O   0  0  0  0  0  0  0  0  0  0  0  0
    3.3947   -0.5490   -0.4444 O   0  0  0  0  0  0  0  0  0  0  0  0
   -0.9246   -0.3727   -0.4881 C   0  0  0  0  0  0  0  0  0  0  0  0
   -1.7898    0.3945    0.5234 C   0  0  0  0  0  0  0  0  0  0  0  0
   -3.2373    0.6342    0.0916 C   0  0  0  0  0  0  0  0  0  0  0  0
    0.5160   -0.6054   -0.0311 C   0  0  0  0  0  0  0  0  0  0  0  0
    1.3669    0.6286    0.2081 C   0  0  0  0  0  0  0  0  0  0  0  0
    2.8424    0.4735   -0.0640 C   0  0  0  0  0  0  0  0  0  0  0  0
  1  7  1  0
  2  8  1  0
  3  9  1  0
  4 10  2  0
  5 12  1  0
  6 12  2  0
  7  8  1  0
  7 10  1  0
  8  9  1  0
 10 11  1  0
 11 12  1  0
M  END
>  <PUBCHEM_COMPOUND_CID>  (1) 
627

>  <PUBCHEM_CONFORMER_RMSD>  (1) 
0.8

>  <PUBCHEM_CONFORMER_DIVERSEORDER>  (1) 
7
451
88
592
26
700
231
313
39
624
104
555
192
28
450
71
21
386
41
560
66
407
521
77
681
113
556
678
218
232
129
340
1
409
529
350
13
184
658
358
656
412
212
220
42
595
130
152
3
337
167
298
19
698
61
382
190
48
290
60
197
444
43
664
36
630
141
638
35
15
517
292
93
12
633
9
136
611
90
245
432
685
273
37
101
64
374
689
375
274
20
493
684
91
163
304
189
170
351
57
366
155
115
241
6
23
307
552
164
259
160
370
314
5
661
418
426
329
512
470
557
203
175
360
62
121
522
89
315

>  <PUBCHEM_MMFF94_PARTIAL_CHARGES>  (1) 
16
1 -0.68
10 0.45
11 0.12
12 0.66
19 0.4
2 -0.68
20 0.4
21 0.4
22 0.5
3 -0.68
4 -0.57
5 -0.65
6 -0.57
7 0.34
8 0.28
9 0.28

>  <PUBCHEM_EFFECTIVE_ROTOR_COUNT>  (1) 
5

>  <PUBCHEM_PHARMACOPHORE_FEATURES>  (1) 
11
1 1 acceptor
1 1 donor
1 11 anion
1 2 acceptor
1 2 donor
1 3 acceptor
1 3 donor
1 4 acceptor
1 5 acceptor
1 6 acceptor
3 5 6 12 anion

>  <PUBCHEM_HEAVY_ATOM_COUNT>  (1) 
12

>  <PUBCHEM_ATOM_DEF_STEREO_COUNT>  (1) 
0

>  <PUBCHEM_ATOM_UDEF_STEREO_COUNT>  (1) 
2

>  <PUBCHEM_BOND_DEF_STEREO_COUNT>  (1) 
0

>  <PUBCHEM_BOND_UDEF_STEREO_COUNT>  (1) 
0

>  <PUBCHEM_ISOTOPIC_ATOM_COUNT>  (1) 
0

>  <PUBCHEM_COMPONENT_COUNT>  (1) 
1

>  <PUBCHEM_CACTVS_TAUTO_COUNT>  (1) 
15

>  <PUBCHEM_CONFORMER_ID>  (1) 
0000027300000007

>  <PUBCHEM_MMFF94_ENERGY>  (1) 
12.8185

>  <PUBCHEM_FEATURE_SELFOVERLAP>  (1) 
56.161

>  <PUBCHEM_SHAPE_FINGERPRINT>  (1) 
12932764 1 18410020961300065038
14325111 11 18340769333710275572
14897335 6 18342729715487138846
15775835 57 18342177790735891268
18186145 218 18202013144028698204
20281407 28 10881406434646534077
20645464 45 17313106319774888427
20653085 51 18411138056096624449
21028194 46 18409737282688639914
21293036 1 17918269861797338869
23402539 116 16415477112627721897
3248919 1 17131841962433078638
5084963 1 18128537248283050666
63268167 104 18273218612033331368
8030462 33 16559037086197051682

>  <PUBCHEM_SHAPE_MULTIPOLES>  (1) 
211.74
5.84
1.48
0.98
1.66
0.21
-0.26
-2.64
0.67
0.2
0.22
-0.77
0
0.3

>  <PUBCHEM_SHAPE_SELFOVERLAP>  (1) 
406.532

>  <PUBCHEM_SHAPE_VOLUME>  (1) 
128.1

>  <PUBCHEM_COORDINATE_TYPE>  (1) 
2
5
10

$$$$
