6270
     RDKit          3D

 11 11  0  0  0  0  0  0  0  0999 V2000
   -2.2283   -1.4507    0.0032 O   0  0  0  0  0  0  0  0  0  0  0  0
    3.9125    0.2945   -0.0032 N   0  0  0  0  0  0  0  0  0  0  0  0
   -0.2630   -0.1589    0.0022 C   0  0  0  0  0  0  0  0  0  0  0  0
   -2.6167    0.9270    0.0056 C   0  0  0  0  0  0  0  0  0  0  0  0
   -1.7088   -0.3159    0.0033 C   0  0  0  0  0  0  0  0  0  0  0  0
    0.2998    1.1173    0.0032 C   0  0  0  0  0  0  0  0  0  0  0  0
    0.5607   -1.2846   -0.0006 C   0  0  0  0  0  0  0  0  0  0  0  0
    2.5104    0.1422   -0.0014 C   0  0  0  0  0  0  0  0  0  0  0  0
    1.6865    1.2678    0.0013 C   0  0  0  0  0  0  0  0  0  0  0  0
    1.9475   -1.1342   -0.0024 C   0  0  0  0  0  0  0  0  0  0  0  0
   -4.1007    0.5955   -0.0111 C   0  0  0  0  0  0  0  0  0  0  0  0
  1  5  2  0
  2  8  1  0
  3  5  1  0
  3  6  2  0
  3  7  1  0
  4  5  1  0
  4 11  1  0
  6  9  1  0
  7 10  2  0
  8  9  2  0
  8 10  1  0
M  END
>  <PUBCHEM_COMPOUND_CID>  (1) 
6270

>  <PUBCHEM_CONFORMER_RMSD>  (1) 
0.4

>  <PUBCHEM_CONFORMER_DIVERSEORDER>  (1) 
1
8
3
6
2
4
7
5
9

>  <PUBCHEM_MMFF94_PARTIAL_CHARGES>  (1) 
16
1 -0.57
10 -0.15
14 0.15
15 0.15
16 0.15
17 0.15
2 -0.9
21 0.4
22 0.4
3 0.09
4 0.06
5 0.42
6 -0.15
7 -0.15
8 0.1
9 -0.15

>  <PUBCHEM_EFFECTIVE_ROTOR_COUNT>  (1) 
2

>  <PUBCHEM_PHARMACOPHORE_FEATURES>  (1) 
5
1 1 acceptor
1 11 hydrophobe
1 2 cation
1 2 donor
6 3 6 7 8 9 10 rings

>  <PUBCHEM_HEAVY_ATOM_COUNT>  (1) 
11

>  <PUBCHEM_ATOM_DEF_STEREO_COUNT>  (1) 
0

>  <PUBCHEM_ATOM_UDEF_STEREO_COUNT>  (1) 
0

>  <PUBCHEM_BOND_DEF_STEREO_COUNT>  (1) 
0

>  <PUBCHEM_BOND_UDEF_STEREO_COUNT>  (1) 
0

>  <PUBCHEM_ISOTOPIC_ATOM_COUNT>  (1) 
0

>  <PUBCHEM_COMPONENT_COUNT>  (1) 
1

>  <PUBCHEM_CACTVS_TAUTO_COUNT>  (1) 
7

>  <PUBCHEM_CONFORMER_ID>  (1) 
0000187E00000001

>  <PUBCHEM_MMFF94_ENERGY>  (1) 
35.2051

>  <PUBCHEM_FEATURE_SELFOVERLAP>  (1) 
25.371

>  <PUBCHEM_SHAPE_FINGERPRINT>  (1) 
10219947 1 18410857629107803756
10608611 8 18409726274919939085
11062470 55 17632576037258706033
11401426 45 18342451552367907296
11471102 20 18410289173185696173
12932764 1 17095792291530164631
13380535 76 18410855456181743895
14144814 61 18411702041490696105
14325111 11 18338516442779880704
14897335 6 18412259528250946047
15775835 57 18408888438184360917
16945 1 18410856529633170696
17844478 74 17822580412962444877
20201158 50 18410856538254721339
20645477 70 18267580213633134887
21040471 1 18266741470712152386
23235685 24 18410568483324842168
23402539 116 18131343095205698357
23402655 69 18270672070548121485
23552423 10 18261957452316643719
2748010 2 18267304428949767596
528886 8 18411414012098401682
53812653 166 18341608230970168000
63268167 104 18411985723732404937

>  <PUBCHEM_SHAPE_MULTIPOLES>  (1) 
215.52
5.87
1.43
0.6
2.15
0.18
0
-1.07
-0.02
-0.04
0
0.01
-0.01
0

>  <PUBCHEM_SHAPE_SELFOVERLAP>  (1) 
443.373

>  <PUBCHEM_SHAPE_VOLUME>  (1) 
125.1

>  <PUBCHEM_COORDINATE_TYPE>  (1) 
2
5
10

$$$$
