6273
     RDKit          3D

 17 18  0  0  0  0  0  0  0  0999 V2000
    1.5796    1.4312   -0.2872 O   0  0  0  0  0  0  0  0  0  0  0  0
   -3.9359   -1.7646   -0.5494 O   0  0  0  0  0  0  0  0  0  0  0  0
   -5.7048    0.3720    0.1019 O   0  0  0  0  0  0  0  0  0  0  0  0
    0.3218    0.9149   -0.2247 C   0  0  0  0  0  0  0  0  0  0  0  0
   -2.2565   -0.1429   -0.0969 C   0  0  0  0  0  0  0  0  0  0  0  0
   -0.6805    1.6016    0.4605 C   0  0  0  0  0  0  0  0  0  0  0  0
    0.0350   -0.3007   -0.8459 C   0  0  0  0  0  0  0  0  0  0  0  0
    2.6406    0.5713   -0.0574 C   0  0  0  0  0  0  0  0  0  0  0  0
   -1.9695    1.0727    0.5245 C   0  0  0  0  0  0  0  0  0  0  0  0
   -1.2541   -0.8295   -0.7820 C   0  0  0  0  0  0  0  0  0  0  0  0
    2.5757   -0.3095    1.0069 C   0  0  0  0  0  0  0  0  0  0  0  0
    3.7381    0.6170   -0.8976 C   0  0  0  0  0  0  0  0  0  0  0  0
    3.6452   -1.1744    1.2388 C   0  0  0  0  0  0  0  0  0  0  0  0
    4.8075   -0.2480   -0.6659 C   0  0  0  0  0  0  0  0  0  0  0  0
   -3.6006   -0.6944   -0.0308 C   0  0  0  0  0  0  0  0  0  0  0  0
    4.7611   -1.1438    0.4023 C   0  0  0  0  0  0  0  0  0  0  0  0
   -4.7025    0.0270    0.7029 C   0  0  0  0  0  0  0  0  0  0  0  0
  1  4  1  0
  1  8  1  0
  2 15  2  0
  3 17  2  0
  4  6  2  0
  4  7  1  0
  5  9  2  0
  5 10  1  0
  5 15  1  0
  6  9  1  0
  7 10  2  0
  8 11  2  0
  8 12  1  0
 11 13  1  0
 12 14  2  0
 13 16  2  0
 14 16  1  0
 15 17  1  0
M  END
>  <PUBCHEM_COMPOUND_CID>  (1) 
6273

>  <PUBCHEM_CONFORMER_RMSD>  (1) 
0.6

>  <PUBCHEM_CONFORMER_DIVERSEORDER>  (1) 
1
4
15
2
12
20
18
14
9
3
8
7
17
19
13
16
5
11
6
10

>  <PUBCHEM_MMFF94_PARTIAL_CHARGES>  (1) 
27
1 -0.17
10 -0.15
11 -0.15
12 -0.15
13 -0.15
14 -0.15
15 0.48
16 -0.15
17 0.51
18 0.15
19 0.15
2 -0.57
20 0.15
21 0.15
22 0.15
23 0.15
24 0.15
25 0.15
26 0.15
27 0.06
3 -0.57
4 0.08
5 0.09
6 -0.15
7 -0.15
8 0.08
9 -0.15

>  <PUBCHEM_EFFECTIVE_ROTOR_COUNT>  (1) 
4

>  <PUBCHEM_PHARMACOPHORE_FEATURES>  (1) 
5
1 1 acceptor
1 2 acceptor
1 3 acceptor
6 4 5 6 7 9 10 rings
6 8 11 12 13 14 16 rings

>  <PUBCHEM_HEAVY_ATOM_COUNT>  (1) 
17

>  <PUBCHEM_ATOM_DEF_STEREO_COUNT>  (1) 
0

>  <PUBCHEM_ATOM_UDEF_STEREO_COUNT>  (1) 
0

>  <PUBCHEM_BOND_DEF_STEREO_COUNT>  (1) 
0

>  <PUBCHEM_BOND_UDEF_STEREO_COUNT>  (1) 
0

>  <PUBCHEM_ISOTOPIC_ATOM_COUNT>  (1) 
0

>  <PUBCHEM_COMPONENT_COUNT>  (1) 
1

>  <PUBCHEM_CACTVS_TAUTO_COUNT>  (1) 
1

>  <PUBCHEM_CONFORMER_ID>  (1) 
0000188100000001

>  <PUBCHEM_MMFF94_ENERGY>  (1) 
54.6471

>  <PUBCHEM_FEATURE_SELFOVERLAP>  (1) 
25.376

>  <PUBCHEM_SHAPE_FINGERPRINT>  (1) 
10062212 137 18272085050242611687
11132069 177 17203610402098000079
11287383 113 15213308546563281824
114248 4 14706929548733346699
11578080 2 18190436368968423148
12119455 92 15123790669506603589
12236239 1 18334581239040105812
12633257 1 16271626946105166146
128620 24 12035446142610354331
12916748 109 7853573530438190073
13167823 11 18260831505344534907
13675066 3 16845293855961576525
13760787 19 18187930611795166999
13760787 5 18261388979314828911
13862211 1 18201998846246145855
14251764 38 13829863391349371291
14576447 43 18186801375205196098
15188451 53 17131253771099732391
15242433 33 18187086169416140498
17349148 13 18060701706382576549
17804303 29 18060419144288497009
17834072 33 18259706705128772108
1813 80 18040726826784528342
18222031 100 17989201581624407581
19422 9 18334860476934811328
19489759 90 16845575292969299497
19784866 240 17895194342762141618
200 152 17603865585624062440
20281475 54 18261670484446117567
20645477 70 16226042250515861234
21267235 1 18335990779236061722
22646028 1 18409727378393880583
22646028 28 18335137579386920882
22854114 59 15626223519882644572
23366157 5 17980191208468573273
23402539 116 17703785916938589709
23559900 14 17561091344898514388
2871803 45 17312820451241877882
351380 180 14189577420700559003
351380 3 18335138691430302074
4072396 5 18130786724999411791
42 15 18202563977636660950
465052 167 18409175427983819911
474 4 17970635319116310396
5104073 3 18130229379962644067
522135 26 17967813855797562516
5374978 207 18131348618211803232

>  <PUBCHEM_SHAPE_MULTIPOLES>  (1) 
332.24
11.05
1.41
1.01
3.61
0.03
-0.07
-3.15
-0.76
0.06
-0.05
-0.53
-0.13
-0.98

>  <PUBCHEM_SHAPE_SELFOVERLAP>  (1) 
719.836

>  <PUBCHEM_SHAPE_VOLUME>  (1) 
180.5

>  <PUBCHEM_COORDINATE_TYPE>  (1) 
2
5
10

$$$$
