6317
     RDKit          3D

 16 16  0  0  1  0  0  0  0  0999 V2000
   -1.4977    1.2608   -1.7117 O   0  0  0  0  0  0  0  0  0  0  0  0
    5.0174    0.2464    0.8298 O   0  0  0  0  0  0  0  0  0  0  0  0
    4.5942   -1.5970   -0.2931 O   0  0  0  0  0  0  0  0  0  0  0  0
   -3.5581    0.4365    0.1224 N   0  0  0  0  0  0  0  0  0  0  0  0
    4.2291   -0.5080    0.2112 N   0  0  0  0  0  0  0  0  0  0  0  0
   -1.2227    1.0700   -0.3245 C   0  0  0  0  0  0  0  0  0  0  0  0
   -2.1717    0.0200    0.2661 C   0  0  0  0  0  0  0  0  0  0  0  0
   -4.4611   -0.5670    0.6839 C   0  0  0  0  0  0  0  0  0  0  0  0
    0.2242    0.6513   -0.1825 C   0  0  0  0  0  0  0  0  0  0  0  0
   -4.2744   -1.9041   -0.0275 C   0  0  0  0  0  0  0  0  0  0  0  0
   -5.9012   -0.0786    0.5631 C   0  0  0  0  0  0  0  0  0  0  0  0
    1.1031    1.4765    0.4977 C   0  0  0  0  0  0  0  0  0  0  0  0
    0.6382   -0.5481   -0.7358 C   0  0  0  0  0  0  0  0  0  0  0  0
    2.4371    1.0904    0.6286 C   0  0  0  0  0  0  0  0  0  0  0  0
    1.9720   -0.9342   -0.6049 C   0  0  0  0  0  0  0  0  0  0  0  0
    2.8715   -0.1149    0.0772 C   0  0  0  0  0  0  0  0  0  0  0  0
  1  6  1  0
  2  5  1  0
  3  5  2  0
  4  7  1  0
  4  8  1  0
  5 16  1  0
  6  7  1  0
  6  9  1  0
  8 10  1  0
  8 11  1  0
  9 12  2  0
  9 13  1  0
 12 14  1  0
 13 15  2  0
 14 16  2  0
 15 16  1  0
M  CHG  2   2  -1   5   1
M  END
>  <PUBCHEM_COMPOUND_CID>  (1) 
6317

>  <PUBCHEM_CONFORMER_RMSD>  (1) 
0.6

>  <PUBCHEM_CONFORMER_DIVERSEORDER>  (1) 
1
7
11
9
19
18
14
20
8
16
4
13
3
17
2
5
6
15
12
10

>  <PUBCHEM_MMFF94_PARTIAL_CHARGES>  (1) 
20
1 -0.68
12 -0.15
13 -0.15
14 -0.15
15 -0.15
16 0.13
2 -0.52
21 0.36
28 0.15
29 0.15
3 -0.52
30 0.4
31 0.15
32 0.15
4 -0.9
5 0.91
6 0.42
7 0.27
8 0.27
9 -0.14

>  <PUBCHEM_EFFECTIVE_ROTOR_COUNT>  (1) 
5

>  <PUBCHEM_PHARMACOPHORE_FEATURES>  (1) 
9
1 1 acceptor
1 1 donor
1 2 acceptor
1 2 anion
1 3 acceptor
1 4 cation
1 4 donor
3 8 10 11 hydrophobe
6 9 12 13 14 15 16 rings

>  <PUBCHEM_HEAVY_ATOM_COUNT>  (1) 
16

>  <PUBCHEM_ATOM_DEF_STEREO_COUNT>  (1) 
0

>  <PUBCHEM_ATOM_UDEF_STEREO_COUNT>  (1) 
1

>  <PUBCHEM_BOND_DEF_STEREO_COUNT>  (1) 
0

>  <PUBCHEM_BOND_UDEF_STEREO_COUNT>  (1) 
0

>  <PUBCHEM_ISOTOPIC_ATOM_COUNT>  (1) 
0

>  <PUBCHEM_COMPONENT_COUNT>  (1) 
1

>  <PUBCHEM_CACTVS_TAUTO_COUNT>  (1) 
1

>  <PUBCHEM_CONFORMER_ID>  (1) 
000018AD00000001

>  <PUBCHEM_MMFF94_ENERGY>  (1) 
33.7128

>  <PUBCHEM_FEATURE_SELFOVERLAP>  (1) 
45.751

>  <PUBCHEM_SHAPE_FINGERPRINT>  (1) 
11046707 91 18114180843734569891
114248 4 11386367054271591681
12032990 46 18341050723019787940
12236239 1 16272205288904514365
12251169 10 17988925587089075205
12507560 40 16701752531578128185
12596602 18 16630525163124147435
12670543 26 10665217117451837136
12815109 37 18333169470821668819
12916748 109 11095889280705838191
13675066 3 17346314877926867624
14115302 16 16515978046126665971
14252887 29 17775293729128977734
14341114 176 18202008719927404089
14911166 2 11746939784850689480
14993402 34 14490193808276712640
15048467 5 13686291396888479570
15527383 91 18273215309240559737
17834072 8 17894623756873482013
18186145 218 14707209967738991837
187816 3 15430038760009150273
18785283 64 18195799894131221808
19050596 39 17989210382323425441
19141452 34 18411140264554164711
200 152 17917985084296635357
20281475 54 18335706104371318885
20374829 77 17967812760723378963
20645477 56 11815894570028552601
20724930 31 18408041810141831872
21119208 17 13623531272747666337
21637258 2 17168411698078049442
22485316 2 18335138683188202155
231179 274 11312059828872216594
23402539 116 16660640735195405357
23500284 214 11887958769784048397
23557571 272 17967530134437314741
23559900 14 18340763836421558697
26918003 58 18202284714968917707
276578 36 14261362340244717973
2916195 48 10879990242480186043
29717793 49 14923939020931669650
3286 77 18341614845061782049
351380 3 17530683221366571443
4028521 119 9799419897421311107
4047638 21 11527950053904299976
42 15 18342742927217874561
465052 167 18411426123869610302
5104073 3 18129092330478755304
59755656 520 12895352175356454445

>  <PUBCHEM_SHAPE_MULTIPOLES>  (1) 
301.7
11.26
1.5
0.94
5.83
0.27
-0.24
4.03
3.24
-0.09
-0.11
0.14
-0.2
0.56

>  <PUBCHEM_SHAPE_SELFOVERLAP>  (1) 
612.746

>  <PUBCHEM_SHAPE_VOLUME>  (1) 
177

>  <PUBCHEM_COORDINATE_TYPE>  (1) 
2
5
10

$$$$
