6318
     RDKit          3D

 10 10  0  0  0  0  0  0  0  0999 V2000
    3.7826    0.0264    0.0006 Cl  0  0  0  0  0  0  0  0  0  0  0  0
   -2.7202    1.1948    0.0007 O   0  0  0  0  0  0  0  0  0  0  0  0
   -2.8834   -1.0723    0.0011 O   0  0  0  0  0  0  0  0  0  0  0  0
   -0.7276   -0.0347   -0.0013 C   0  0  0  0  0  0  0  0  0  0  0  0
   -0.0136   -1.2331   -0.0009 C   0  0  0  0  0  0  0  0  0  0  0  0
   -0.0468    1.1827   -0.0008 C   0  0  0  0  0  0  0  0  0  0  0  0
    1.3811   -1.2139    0.0000 C   0  0  0  0  0  0  0  0  0  0  0  0
    1.3480    1.2018    0.0002 C   0  0  0  0  0  0  0  0  0  0  0  0
    2.0619    0.0036    0.0006 C   0  0  0  0  0  0  0  0  0  0  0  0
   -2.1819   -0.0554   -0.0001 C   0  0  0  0  0  0  0  0  0  0  0  0
  1  9  1  0
  2 10  1  0
  3 10  2  0
  4  5  2  0
  4  6  1  0
  4 10  1  0
  5  7  1  0
  6  8  2  0
  7  9  2  0
  8  9  1  0
M  END
>  <PUBCHEM_COMPOUND_CID>  (1) 
6318

>  <PUBCHEM_CONFORMER_RMSD>  (1) 
0.4

>  <PUBCHEM_CONFORMER_DIVERSEORDER>  (1) 
1
2

>  <PUBCHEM_MMFF94_PARTIAL_CHARGES>  (1) 
15
1 -0.18
10 0.63
11 0.15
12 0.15
13 0.15
14 0.15
15 0.5
2 -0.65
3 -0.57
4 0.09
5 -0.15
6 -0.15
7 -0.15
8 -0.15
9 0.18

>  <PUBCHEM_EFFECTIVE_ROTOR_COUNT>  (1) 
1

>  <PUBCHEM_PHARMACOPHORE_FEATURES>  (1) 
4
1 2 acceptor
1 3 acceptor
3 2 3 10 anion
6 4 5 6 7 8 9 rings

>  <PUBCHEM_HEAVY_ATOM_COUNT>  (1) 
10

>  <PUBCHEM_ATOM_DEF_STEREO_COUNT>  (1) 
0

>  <PUBCHEM_ATOM_UDEF_STEREO_COUNT>  (1) 
0

>  <PUBCHEM_BOND_DEF_STEREO_COUNT>  (1) 
0

>  <PUBCHEM_BOND_UDEF_STEREO_COUNT>  (1) 
0

>  <PUBCHEM_ISOTOPIC_ATOM_COUNT>  (1) 
0

>  <PUBCHEM_COMPONENT_COUNT>  (1) 
1

>  <PUBCHEM_CACTVS_TAUTO_COUNT>  (1) 
1

>  <PUBCHEM_CONFORMER_ID>  (1) 
000018AE00000001

>  <PUBCHEM_MMFF94_ENERGY>  (1) 
25.1508

>  <PUBCHEM_FEATURE_SELFOVERLAP>  (1) 
20.355

>  <PUBCHEM_SHAPE_FINGERPRINT>  (1) 
10857977 72 18411128160528917498
12032990 46 18411989065612807702
12897270 3 18411135822745292141
12932764 1 17131542899243556862
14325111 11 18410575097848765088
16945 1 18410574019611507238
193761 8 17618222802264071524
20201158 50 18408602552308100099
21040471 1 18338797939273502436
23235685 24 18410288108186735432
23402655 69 18196637528949842717
23552423 10 18261396615524198191
2748010 2 18267023843136730494
29004967 10 18408888420957025554
5084963 1 18271528696820574905
528886 8 18411131407503107129
53812653 166 18342452625819763128

>  <PUBCHEM_SHAPE_MULTIPOLES>  (1) 
195.93
4.77
1.41
0.6
0.87
0.01
0
0
0
-0.23
0
0.07
0
0

>  <PUBCHEM_SHAPE_SELFOVERLAP>  (1) 
402.721

>  <PUBCHEM_SHAPE_VOLUME>  (1) 
114

>  <PUBCHEM_COORDINATE_TYPE>  (1) 
2
5
10

$$$$
