6326
     RDKit          3D

  2  1  0  0  0  0  0  0  0  0999 V2000
   -0.6000    0.0000    0.0000 C   0  0  0  0  0  0  0  0  0  0  0  0
    0.6000    0.0000    0.0000 C   0  0  0  0  0  0  0  0  0  0  0  0
  1  2  3  0
M  END
>  <PUBCHEM_COMPOUND_CID>  (1) 
6326

>  <PUBCHEM_CONFORMER_RMSD>  (1) 
0.4

>  <PUBCHEM_CONFORMER_DIVERSEORDER>  (1) 
1

>  <PUBCHEM_MMFF94_PARTIAL_CHARGES>  (1) 
4
1 -0.18
2 -0.18
3 0.18
4 0.18

>  <PUBCHEM_EFFECTIVE_ROTOR_COUNT>  (1) 
0

>  <PUBCHEM_PHARMACOPHORE_FEATURES>  (1) 
2
1 1 hydrophobe
1 2 hydrophobe

>  <PUBCHEM_HEAVY_ATOM_COUNT>  (1) 
2

>  <PUBCHEM_ATOM_DEF_STEREO_COUNT>  (1) 
0

>  <PUBCHEM_ATOM_UDEF_STEREO_COUNT>  (1) 
0

>  <PUBCHEM_BOND_DEF_STEREO_COUNT>  (1) 
0

>  <PUBCHEM_BOND_UDEF_STEREO_COUNT>  (1) 
0

>  <PUBCHEM_ISOTOPIC_ATOM_COUNT>  (1) 
0

>  <PUBCHEM_COMPONENT_COUNT>  (1) 
1

>  <PUBCHEM_CACTVS_TAUTO_COUNT>  (1) 
1

>  <PUBCHEM_CONFORMER_ID>  (1) 
000018B600000001

>  <PUBCHEM_MMFF94_ENERGY>  (1) 
-0.0155

>  <PUBCHEM_FEATURE_SELFOVERLAP>  (1) 
12.553

>  <PUBCHEM_SHAPE_FINGERPRINT>  (1) 
21015797 1 18410575119022817310
260 1 18410856563934756871

>  <PUBCHEM_SHAPE_MULTIPOLES>  (1) 
41.16
0.98
0.62
0.62
0
0
0
0
0
0
0
0
0
0

>  <PUBCHEM_SHAPE_SELFOVERLAP>  (1) 
61.201

>  <PUBCHEM_SHAPE_VOLUME>  (1) 
30.2

>  <PUBCHEM_COORDINATE_TYPE>  (1) 
2
5
10

$$$$
