6332
     RDKit          3D

  3  2  0  0  0  0  0  0  0  0999 V2000
    1.5219    0.2493    0.0000 Br  0  0  0  0  0  0  0  0  0  0  0  0
   -0.2078   -0.6391    0.0000 C   0  0  0  0  0  0  0  0  0  0  0  0
   -1.3141    0.3898    0.0000 C   0  0  0  0  0  0  0  0  0  0  0  0
  1  2  1  0
  2  3  1  0
M  END
>  <PUBCHEM_COMPOUND_CID>  (1) 
6332

>  <PUBCHEM_CONFORMER_RMSD>  (1) 
0.4

>  <PUBCHEM_CONFORMER_DIVERSEORDER>  (1) 
1

>  <PUBCHEM_MMFF94_PARTIAL_CHARGES>  (1) 
2
1 -0.23
2 0.23

>  <PUBCHEM_EFFECTIVE_ROTOR_COUNT>  (1) 
0

>  <PUBCHEM_PHARMACOPHORE_FEATURES>  (1) 
2
1 1 hydrophobe
3 1 2 3 hydrophobe

>  <PUBCHEM_HEAVY_ATOM_COUNT>  (1) 
3

>  <PUBCHEM_ATOM_DEF_STEREO_COUNT>  (1) 
0

>  <PUBCHEM_ATOM_UDEF_STEREO_COUNT>  (1) 
0

>  <PUBCHEM_BOND_DEF_STEREO_COUNT>  (1) 
0

>  <PUBCHEM_BOND_UDEF_STEREO_COUNT>  (1) 
0

>  <PUBCHEM_ISOTOPIC_ATOM_COUNT>  (1) 
0

>  <PUBCHEM_COMPONENT_COUNT>  (1) 
1

>  <PUBCHEM_CACTVS_TAUTO_COUNT>  (1) 
1

>  <PUBCHEM_CONFORMER_ID>  (1) 
000018BC00000001

>  <PUBCHEM_MMFF94_ENERGY>  (1) 
-1.8444

>  <PUBCHEM_FEATURE_SELFOVERLAP>  (1) 
11.09

>  <PUBCHEM_SHAPE_FINGERPRINT>  (1) 
139733 1 18410856546807680676
21015797 1 18120096344713775247

>  <PUBCHEM_SHAPE_MULTIPOLES>  (1) 
67.68
2.09
0.85
0.66
0.33
0.04
0
-0.38
0
-0.04
0
0.06
-0.01
0

>  <PUBCHEM_SHAPE_SELFOVERLAP>  (1) 
93.291

>  <PUBCHEM_SHAPE_VOLUME>  (1) 
54.2

>  <PUBCHEM_COORDINATE_TYPE>  (1) 
2
5
10

$$$$
