6368
     RDKit          3D

  4  3  0  0  0  0  0  0  0  0999 V2000
   -0.6785   -1.0884   -0.1258 F   0  0  0  0  0  0  0  0  0  0  0  0
   -0.6782    1.0886   -0.1258 F   0  0  0  0  0  0  0  0  0  0  0  0
   -0.0367    0.0000    0.3645 C   0  0  0  0  0  0  0  0  0  0  0  0
    1.3934   -0.0001   -0.1129 C   0  0  0  0  0  0  0  0  0  0  0  0
  1  3  1  0
  2  3  1  0
  3  4  1  0
M  END
>  <PUBCHEM_COMPOUND_CID>  (1) 
6368

>  <PUBCHEM_CONFORMER_RMSD>  (1) 
0.4

>  <PUBCHEM_CONFORMER_DIVERSEORDER>  (1) 
1

>  <PUBCHEM_MMFF94_PARTIAL_CHARGES>  (1) 
3
1 -0.34
2 -0.34
3 0.68

>  <PUBCHEM_EFFECTIVE_ROTOR_COUNT>  (1) 
0

>  <PUBCHEM_PHARMACOPHORE_FEATURES>  (1) 
0

>  <PUBCHEM_HEAVY_ATOM_COUNT>  (1) 
4

>  <PUBCHEM_ATOM_DEF_STEREO_COUNT>  (1) 
0

>  <PUBCHEM_ATOM_UDEF_STEREO_COUNT>  (1) 
0

>  <PUBCHEM_BOND_DEF_STEREO_COUNT>  (1) 
0

>  <PUBCHEM_BOND_UDEF_STEREO_COUNT>  (1) 
0

>  <PUBCHEM_ISOTOPIC_ATOM_COUNT>  (1) 
0

>  <PUBCHEM_COMPONENT_COUNT>  (1) 
1

>  <PUBCHEM_CACTVS_TAUTO_COUNT>  (1) 
1

>  <PUBCHEM_CONFORMER_ID>  (1) 
000018E000000001

>  <PUBCHEM_MMFF94_ENERGY>  (1) 
0.1032

>  <PUBCHEM_FEATURE_SELFOVERLAP>  (1) 
0

>  <PUBCHEM_SHAPE_FINGERPRINT>  (1) 
139733 1 8789793357589113458
20096714 4 18117846499363605636
21015797 1 9871477525264803538
5943 1 7845751329555448328

>  <PUBCHEM_SHAPE_MULTIPOLES>  (1) 
67.77
1.31
1.02
0.6
0.53
0
0.04
0
-0.08
-0.33
-0.07
0.04
0
0

>  <PUBCHEM_SHAPE_SELFOVERLAP>  (1) 
113.69

>  <PUBCHEM_SHAPE_VOLUME>  (1) 
46.8

>  <PUBCHEM_COORDINATE_TYPE>  (1) 
2
5
10

$$$$
