6385
     RDKit          3D

  5  4  0  0  0  0  0  0  0  0999 V2000
    0.1209   -0.0032    1.4654 N   0  0  0  0  0  0  0  0  0  0  0  0
   -0.0024    0.0000    0.0040 C   0  0  0  0  0  0  0  0  0  0  0  0
    0.6886    1.2542   -0.5418 C   0  0  0  0  0  0  0  0  0  0  0  0
    0.6793   -1.2572   -0.5461 C   0  0  0  0  0  0  0  0  0  0  0  0
   -1.4864    0.0062   -0.3814 C   0  0  0  0  0  0  0  0  0  0  0  0
  1  2  1  0
  2  3  1  0
  2  4  1  0
  2  5  1  0
M  END
>  <PUBCHEM_COMPOUND_CID>  (1) 
6385

>  <PUBCHEM_CONFORMER_RMSD>  (1) 
0.4

>  <PUBCHEM_CONFORMER_DIVERSEORDER>  (1) 
1

>  <PUBCHEM_MMFF94_PARTIAL_CHARGES>  (1) 
4
1 -0.99
15 0.36
16 0.36
2 0.27

>  <PUBCHEM_EFFECTIVE_ROTOR_COUNT>  (1) 
0

>  <PUBCHEM_PHARMACOPHORE_FEATURES>  (1) 
3
1 1 cation
1 1 donor
4 2 3 4 5 hydrophobe

>  <PUBCHEM_HEAVY_ATOM_COUNT>  (1) 
5

>  <PUBCHEM_ATOM_DEF_STEREO_COUNT>  (1) 
0

>  <PUBCHEM_ATOM_UDEF_STEREO_COUNT>  (1) 
0

>  <PUBCHEM_BOND_DEF_STEREO_COUNT>  (1) 
0

>  <PUBCHEM_BOND_UDEF_STEREO_COUNT>  (1) 
0

>  <PUBCHEM_ISOTOPIC_ATOM_COUNT>  (1) 
0

>  <PUBCHEM_COMPONENT_COUNT>  (1) 
1

>  <PUBCHEM_CACTVS_TAUTO_COUNT>  (1) 
1

>  <PUBCHEM_CONFORMER_ID>  (1) 
000018F100000001

>  <PUBCHEM_MMFF94_ENERGY>  (1) 
-1.0611

>  <PUBCHEM_FEATURE_SELFOVERLAP>  (1) 
15.223

>  <PUBCHEM_SHAPE_FINGERPRINT>  (1) 
139733 1 11243414023826413087
20096714 4 11709743813215490895
21015797 1 12819009779650310052
5943 1 13464706761969631261

>  <PUBCHEM_SHAPE_MULTIPOLES>  (1) 
97.92
1.26
1.26
1.09
0.5
0.02
0.46
-0.02
-0.29
-0.47
-0.31
-0.03
0
0

>  <PUBCHEM_SHAPE_SELFOVERLAP>  (1) 
168.473

>  <PUBCHEM_SHAPE_VOLUME>  (1) 
67.6

>  <PUBCHEM_COORDINATE_TYPE>  (1) 
2
5
10

$$$$
