6404
     RDKit          3D

  6  5  0  0  0  0  0  0  0  0999 V2000
   -2.0393   -0.0151    0.0018 O   0  0  0  0  0  0  0  0  0  0  0  0
    0.4048    0.0031    0.0046 C   0  0  0  0  0  0  0  0  0  0  0  0
   -0.8944    0.5094    0.6624 C   0  0  0  0  0  0  0  0  0  0  0  0
    1.6305    0.5800    0.7327 C   0  0  0  0  0  0  0  0  0  0  0  0
    0.4301    0.4550   -1.4642 C   0  0  0  0  0  0  0  0  0  0  0  0
    0.4683   -1.5325    0.0627 C   0  0  0  0  0  0  0  0  0  0  0  0
  1  3  1  0
  2  3  1  0
  2  4  1  0
  2  5  1  0
  2  6  1  0
M  END
>  <PUBCHEM_COMPOUND_CID>  (1) 
6404

>  <PUBCHEM_CONFORMER_RMSD>  (1) 
0.4

>  <PUBCHEM_CONFORMER_DIVERSEORDER>  (1) 
1

>  <PUBCHEM_MMFF94_PARTIAL_CHARGES>  (1) 
3
1 -0.68
18 0.4
3 0.28

>  <PUBCHEM_EFFECTIVE_ROTOR_COUNT>  (1) 
1

>  <PUBCHEM_PHARMACOPHORE_FEATURES>  (1) 
3
1 1 acceptor
1 1 donor
4 2 4 5 6 hydrophobe

>  <PUBCHEM_HEAVY_ATOM_COUNT>  (1) 
6

>  <PUBCHEM_ATOM_DEF_STEREO_COUNT>  (1) 
0

>  <PUBCHEM_ATOM_UDEF_STEREO_COUNT>  (1) 
0

>  <PUBCHEM_BOND_DEF_STEREO_COUNT>  (1) 
0

>  <PUBCHEM_BOND_UDEF_STEREO_COUNT>  (1) 
0

>  <PUBCHEM_ISOTOPIC_ATOM_COUNT>  (1) 
0

>  <PUBCHEM_COMPONENT_COUNT>  (1) 
1

>  <PUBCHEM_CACTVS_TAUTO_COUNT>  (1) 
1

>  <PUBCHEM_CONFORMER_ID>  (1) 
0000190400000001

>  <PUBCHEM_MMFF94_ENERGY>  (1) 
12.1471

>  <PUBCHEM_FEATURE_SELFOVERLAP>  (1) 
15.223

>  <PUBCHEM_SHAPE_FINGERPRINT>  (1) 
20096714 4 17274814796350447952
21040471 1 18338805618532635475
24536 1 17750540423794840841
29004967 10 15936399061603768504
5943 1 16408667781414010718

>  <PUBCHEM_SHAPE_MULTIPOLES>  (1) 
117.61
1.82
1.15
1.15
0.66
0.55
-0.43
-0.29
0.39
-0.24
0.05
-0.22
-0.26
0.01

>  <PUBCHEM_SHAPE_SELFOVERLAP>  (1) 
207.542

>  <PUBCHEM_SHAPE_VOLUME>  (1) 
79.1

>  <PUBCHEM_COORDINATE_TYPE>  (1) 
2
5
10

$$$$
