6411
     RDKit          3D

  6  5  0  0  0  0  0  0  0  0999 V2000
    0.4905   -0.1441   -0.0198 S   0  0  0  0  0  0  0  0  0  0  0  0
    1.4836    1.1220    0.2403 O   0  0  0  0  0  0  0  0  0  0  0  0
   -2.1720   -0.0891   -0.0096 O   0  0  0  0  0  0  0  0  0  0  0  0
    0.5441   -1.0250    1.1285 O   0  0  0  0  0  0  0  0  0  0  0  0
    0.6933   -0.6279   -1.3700 O   0  0  0  0  0  0  0  0  0  0  0  0
   -1.0396    0.7641    0.0306 C   0  0  0  0  0  0  0  0  0  0  0  0
  1  2  1  0
  1  4  2  0
  1  5  2  0
  1  6  1  0
  3  6  1  0
M  END
>  <PUBCHEM_COMPOUND_CID>  (1) 
6411

>  <PUBCHEM_CONFORMER_RMSD>  (1) 
0.4

>  <PUBCHEM_CONFORMER_DIVERSEORDER>  (1) 
1

>  <PUBCHEM_MMFF94_PARTIAL_CHARGES>  (1) 
8
1 1.38
10 0.4
2 -0.68
3 -0.68
4 -0.65
5 -0.65
6 0.39
9 0.5

>  <PUBCHEM_EFFECTIVE_ROTOR_COUNT>  (1) 
1

>  <PUBCHEM_PHARMACOPHORE_FEATURES>  (1) 
6
1 2 acceptor
1 3 acceptor
1 3 donor
1 4 acceptor
1 5 acceptor
4 1 2 4 5 anion

>  <PUBCHEM_HEAVY_ATOM_COUNT>  (1) 
6

>  <PUBCHEM_ATOM_DEF_STEREO_COUNT>  (1) 
0

>  <PUBCHEM_ATOM_UDEF_STEREO_COUNT>  (1) 
0

>  <PUBCHEM_BOND_DEF_STEREO_COUNT>  (1) 
0

>  <PUBCHEM_BOND_UDEF_STEREO_COUNT>  (1) 
0

>  <PUBCHEM_ISOTOPIC_ATOM_COUNT>  (1) 
0

>  <PUBCHEM_COMPONENT_COUNT>  (1) 
1

>  <PUBCHEM_CACTVS_TAUTO_COUNT>  (1) 
1

>  <PUBCHEM_CONFORMER_ID>  (1) 
0000190B00000001

>  <PUBCHEM_MMFF94_ENERGY>  (1) 
3.1431

>  <PUBCHEM_FEATURE_SELFOVERLAP>  (1) 
30.501

>  <PUBCHEM_SHAPE_FINGERPRINT>  (1) 
139733 1 13324559784457408683
20096714 4 18271518809790340488
24536 1 17773869801409907889
29004967 10 17630904706522569846
5943 1 8455060752137827462

>  <PUBCHEM_SHAPE_MULTIPOLES>  (1) 
103.85
1.93
1.06
1.02
1.12
0.15
0.12
0.23
-0.01
-0.3
-0.12
-0.32
-0.34
0.04

>  <PUBCHEM_SHAPE_SELFOVERLAP>  (1) 
176.098

>  <PUBCHEM_SHAPE_VOLUME>  (1) 
70.3

>  <PUBCHEM_COORDINATE_TYPE>  (1) 
2
5
10

$$$$
