6437
     RDKit          3D

 28 32  0  0  1  0  0  0  0  0999 V2000
   -1.6490   -1.5469   -0.2946 O   0  0  0  0  0  0  0  0  0  0  0  0
    1.5639    3.0108    0.3581 O   0  0  0  0  0  0  0  0  0  0  0  0
    7.0514   -1.0258   -0.1194 O   0  0  0  0  0  0  0  0  0  0  0  0
   -6.0624    0.2341   -0.9175 O   0  0  0  0  0  0  0  0  0  0  0  0
   -6.3968   -2.0223   -0.6135 O   0  0  0  0  0  0  0  0  0  0  0  0
   -0.8982   -0.4891    0.3189 C   0  0  0  0  0  0  0  0  0  0  0  0
    0.5853   -0.6418   -0.1267 C   0  0  0  0  0  0  0  0  0  0  0  0
    1.4969    0.5688    0.2063 C   0  0  0  0  0  0  0  0  0  0  0  0
   -1.5367    0.8723   -0.0606 C   0  0  0  0  0  0  0  0  0  0  0  0
    2.9712    0.3980   -0.4058 C   0  0  0  0  0  0  0  0  0  0  0  0
    0.8156    1.9109   -0.1579 C   0  0  0  0  0  0  0  0  0  0  0  0
    3.3061   -1.1165   -0.6485 C   0  0  0  0  0  0  0  0  0  0  0  0
   -0.6067    2.0290    0.3837 C   0  0  0  0  0  0  0  0  0  0  0  0
   -2.8311    0.9236    0.8139 C   0  0  0  0  0  0  0  0  0  0  0  0
    1.1927   -1.9620    0.4133 C   0  0  0  0  0  0  0  0  0  0  0  0
   -1.1393   -0.5659    1.8387 C   0  0  0  0  0  0  0  0  0  0  0  0
    2.7174   -1.9821    0.4630 C   0  0  0  0  0  0  0  0  0  0  0  0
   -2.4620    0.1659    2.1026 C   0  0  0  0  0  0  0  0  0  0  0  0
    3.9860    1.0281    0.5988 C   0  0  0  0  0  0  0  0  0  0  0  0
   -1.8340    1.0081   -1.5670 C   0  0  0  0  0  0  0  0  0  0  0  0
    4.8044   -1.4063   -0.8441 C   0  0  0  0  0  0  0  0  0  0  0  0
    3.1153    1.1143   -1.7730 C   0  0  0  0  0  0  0  0  0  0  0  0
    5.4498    0.7191    0.3062 C   0  0  0  0  0  0  0  0  0  0  0  0
    5.6908   -0.7803    0.2222 C   0  0  0  0  0  0  0  0  0  0  0  0
   -4.0767    0.3355    0.2174 C   0  0  0  0  0  0  0  0  0  0  0  0
   -5.0451    1.1636   -0.5297 C   0  0  0  0  0  0  0  0  0  0  0  0
   -4.4691   -0.9346    0.2693 C   0  0  0  0  0  0  0  0  0  0  0  0
   -5.7393   -1.0084   -0.4541 C   0  0  0  0  0  0  0  0  0  0  0  0
  1  6  1  0
  2 11  1  0
  3 24  1  0
  4 26  1  0
  4 28  1  0
  5 28  2  0
  6  7  1  0
  6  9  1  0
  6 16  1  0
  7  8  1  0
  7 15  1  0
  8 10  1  0
  8 11  1  0
  9 13  1  0
  9 14  1  0
  9 20  1  0
 10 12  1  0
 10 19  1  0
 10 22  1  0
 11 13  1  0
 12 17  1  0
 12 21  1  0
 14 18  1  0
 14 25  1  0
 15 17  1  0
 16 18  1  0
 19 23  1  0
 21 24  1  0
 23 24  1  0
 25 26  1  0
 25 27  2  0
 27 28  1  0
M  END
>  <PUBCHEM_COMPOUND_CID>  (1) 
6437

>  <PUBCHEM_CONFORMER_RMSD>  (1) 
0.8

>  <PUBCHEM_CONFORMER_DIVERSEORDER>  (1) 
1
4
3
2

>  <PUBCHEM_MMFF94_PARTIAL_CHARGES>  (1) 
17
1 -0.68
11 0.28
14 0.14
2 -0.68
24 0.28
25 -0.28
26 0.42
27 -0.14
28 0.71
3 -0.68
4 -0.43
5 -0.57
57 0.4
58 0.4
6 0.28
61 0.15
62 0.4

>  <PUBCHEM_EFFECTIVE_ROTOR_COUNT>  (1) 
3.6

>  <PUBCHEM_PHARMACOPHORE_FEATURES>  (1) 
12
1 1 acceptor
1 1 donor
1 2 acceptor
1 2 donor
1 3 acceptor
1 3 donor
1 5 acceptor
5 4 25 26 27 28 rings
5 6 9 14 16 18 rings
6 10 12 19 21 23 24 rings
6 6 7 8 9 11 13 rings
6 7 8 10 12 15 17 rings

>  <PUBCHEM_HEAVY_ATOM_COUNT>  (1) 
28

>  <PUBCHEM_ATOM_DEF_STEREO_COUNT>  (1) 
9

>  <PUBCHEM_ATOM_UDEF_STEREO_COUNT>  (1) 
0

>  <PUBCHEM_BOND_DEF_STEREO_COUNT>  (1) 
0

>  <PUBCHEM_BOND_UDEF_STEREO_COUNT>  (1) 
0

>  <PUBCHEM_ISOTOPIC_ATOM_COUNT>  (1) 
0

>  <PUBCHEM_COMPONENT_COUNT>  (1) 
1

>  <PUBCHEM_CACTVS_TAUTO_COUNT>  (1) 
1

>  <PUBCHEM_CONFORMER_ID>  (1) 
0000192500000001

>  <PUBCHEM_MMFF94_ENERGY>  (1) 
103.6559

>  <PUBCHEM_FEATURE_SELFOVERLAP>  (1) 
61.103

>  <PUBCHEM_SHAPE_FINGERPRINT>  (1) 
10 15 18335412496919443752
10366900 7 17821452347927614768
10930396 42 18043505370816762528
11089746 13 16587740958026193911
11578080 2 16555920120771793907
11796584 16 15791740702431549138
11963148 33 18411129238820222110
12011746 2 18187083944622931856
12166972 35 18261111876847395324
12236239 1 17775568623878115737
12467345 10 18201716292974220087
12516196 113 18342455937302903656
12596602 18 17561084696025026138
13140716 1 18266752465696971136
13224815 77 18409170983124847584
13402501 40 18334012791839626128
13533116 47 17917147311902060848
13862211 1 18410575076458376714
13944108 23 16096256727293443429
15082195 135 17534631709308389317
15183329 4 16370722625764156645
15196674 1 18411983537594141937
17349148 13 18113620062470776736
17980427 23 17275117115162434897
18681886 176 18271800246096586434
19377110 9 15267348409344968066
19489759 90 17458345221650920629
200 152 18343582932542223945
20028762 73 18273496771438364166
21267235 1 18413395332036063494
22393880 68 18260818311901216967
23402539 116 18341611486317988429
23559900 14 17313109682607940328
23569917 315 18272095989493679790
249057 3 18411979149160952061
3004659 81 18113899364468355124
3009799 131 18335136471216884105
335352 9 18409730664033202380
34797466 226 15841557418328794336
4015057 19 18114189682735638873
439807 62 18266458888447172407
474113 269 17605253113802001418
484989 97 18042698371482658723
5283173 99 17968652710192450933
58260988 393 15913336766788609418
59755656 215 18335704910497660582
6004065 56 18269831076685078624
6138700 20 18334575711533188610
6669772 16 17057223751479517792
6913067 236 17894342285105172174
7226269 152 12901546832388428103

>  <PUBCHEM_SHAPE_MULTIPOLES>  (1) 
546.88
13.94
2.16
1.28
1.39
0.35
-0.18
-4.75
2.87
-0.41
0.04
0.5
0.12
-0.06

>  <PUBCHEM_SHAPE_SELFOVERLAP>  (1) 
1184.2

>  <PUBCHEM_SHAPE_VOLUME>  (1) 
298.4

>  <PUBCHEM_COORDINATE_TYPE>  (1) 
2
5
10

$$$$
