6439
     RDKit          3D

 12 11  0  0  0  0  0  0  0  0999 V2000
   -0.4452    1.1474    1.3815 O   0  0  0  0  0  0  0  0  0  0  0  0
   -0.3313   -1.1825    1.3470 O   0  0  0  0  0  0  0  0  0  0  0  0
    0.4439   -1.1472   -1.3817 O   0  0  0  0  0  0  0  0  0  0  0  0
    0.3310    1.1828   -1.3466 O   0  0  0  0  0  0  0  0  0  0  0  0
   -2.4770    1.1535   -0.2517 O   0  0  0  0  0  0  0  0  0  0  0  0
    2.4771   -1.1535    0.2526 O   0  0  0  0  0  0  0  0  0  0  0  0
   -2.5399   -1.1131   -0.2727 O   0  0  0  0  0  0  0  0  0  0  0  0
    2.5404    1.1131    0.2722 O   0  0  0  0  0  0  0  0  0  0  0  0
   -0.5341   -0.0114    0.5643 C   0  0  0  0  0  0  0  0  0  0  0  0
    0.5346    0.0112   -0.5645 C   0  0  0  0  0  0  0  0  0  0  0  0
   -1.9426   -0.0733   -0.0234 C   0  0  0  0  0  0  0  0  0  0  0  0
    1.9432    0.0731    0.0229 C   0  0  0  0  0  0  0  0  0  0  0  0
  1  9  1  0
  2  9  1  0
  3 10  1  0
  4 10  1  0
  5 11  1  0
  6 12  1  0
  7 11  2  0
  8 12  2  0
  9 10  1  0
  9 11  1  0
 10 12  1  0
M  END
>  <PUBCHEM_COMPOUND_CID>  (1) 
6439

>  <PUBCHEM_CONFORMER_RMSD>  (1) 
0.6

>  <PUBCHEM_CONFORMER_DIVERSEORDER>  (1) 
1
9
6
5
4
3
8
7
2

>  <PUBCHEM_MMFF94_PARTIAL_CHARGES>  (1) 
18
1 -0.68
10 0.62
11 0.66
12 0.66
13 0.4
14 0.4
15 0.4
16 0.4
17 0.5
18 0.5
2 -0.68
3 -0.68
4 -0.68
5 -0.65
6 -0.65
7 -0.57
8 -0.57
9 0.62

>  <PUBCHEM_EFFECTIVE_ROTOR_COUNT>  (1) 
3

>  <PUBCHEM_PHARMACOPHORE_FEATURES>  (1) 
14
1 1 acceptor
1 1 donor
1 2 acceptor
1 2 donor
1 3 acceptor
1 3 donor
1 4 acceptor
1 4 donor
1 5 acceptor
1 6 acceptor
1 7 acceptor
1 8 acceptor
3 5 7 11 anion
3 6 8 12 anion

>  <PUBCHEM_HEAVY_ATOM_COUNT>  (1) 
12

>  <PUBCHEM_ATOM_DEF_STEREO_COUNT>  (1) 
0

>  <PUBCHEM_ATOM_UDEF_STEREO_COUNT>  (1) 
0

>  <PUBCHEM_BOND_DEF_STEREO_COUNT>  (1) 
0

>  <PUBCHEM_BOND_UDEF_STEREO_COUNT>  (1) 
0

>  <PUBCHEM_ISOTOPIC_ATOM_COUNT>  (1) 
0

>  <PUBCHEM_COMPONENT_COUNT>  (1) 
1

>  <PUBCHEM_CACTVS_TAUTO_COUNT>  (1) 
1

>  <PUBCHEM_CONFORMER_ID>  (1) 
0000192700000001

>  <PUBCHEM_MMFF94_ENERGY>  (1) 
5.8241

>  <PUBCHEM_FEATURE_SELFOVERLAP>  (1) 
71.392

>  <PUBCHEM_SHAPE_FINGERPRINT>  (1) 
10857977 72 16558745754133409099
12423570 1 14592158883083809404
12897270 3 17704358753268377129
16945 1 18263925621069447175
21040471 1 17531257148744561570
21922407 69 17559701506139310986
23235685 24 15864644851049161775
24536 1 17977426889832156196
29004967 10 17418098727960742723
369184 2 18411139138481130745
5084963 1 18407762533972079372

>  <PUBCHEM_SHAPE_MULTIPOLES>  (1) 
200
3.28
1.32
1.18
0
0
0
0
0
0
0
0
0
0

>  <PUBCHEM_SHAPE_SELFOVERLAP>  (1) 
402.312

>  <PUBCHEM_SHAPE_VOLUME>  (1) 
114.6

>  <PUBCHEM_COORDINATE_TYPE>  (1) 
2
5
10

$$$$
