6440
     RDKit          3D

  8  7  0  0  1  0  0  0  0  0999 V2000
    1.9826    0.3220    0.7971 O   0  0  0  0  0  0  0  0  0  0  0  0
   -2.0243   -1.0600    0.5941 O   0  0  0  0  0  0  0  0  0  0  0  0
   -0.2557    0.4440   -0.1771 C   0  0  0  0  0  0  0  0  0  0  0  0
    0.8594   -0.4754    0.4118 C   0  0  0  0  0  0  0  0  0  0  0  0
   -1.5279   -0.3570   -0.5374 C   0  0  0  0  0  0  0  0  0  0  0  0
    0.2273    1.1841   -1.4407 C   0  0  0  0  0  0  0  0  0  0  0  0
   -0.6233    1.5102    0.8817 C   0  0  0  0  0  0  0  0  0  0  0  0
    1.3619   -1.5678   -0.5294 C   0  0  0  0  0  0  0  0  0  0  0  0
  1  4  1  0
  2  5  1  0
  3  4  1  0
  3  5  1  0
  3  6  1  0
  3  7  1  0
  4  8  1  0
M  END
>  <PUBCHEM_COMPOUND_CID>  (1) 
6440

>  <PUBCHEM_CONFORMER_RMSD>  (1) 
0.4

>  <PUBCHEM_CONFORMER_DIVERSEORDER>  (1) 
1
3
14
11
16
7
12
2
18
8
5
6
13
17
9
4
10
15

>  <PUBCHEM_MMFF94_PARTIAL_CHARGES>  (1) 
6
1 -0.68
2 -0.68
21 0.4
22 0.4
4 0.28
5 0.28

>  <PUBCHEM_EFFECTIVE_ROTOR_COUNT>  (1) 
2

>  <PUBCHEM_PHARMACOPHORE_FEATURES>  (1) 
5
1 1 acceptor
1 1 donor
1 2 acceptor
1 2 donor
3 3 6 7 hydrophobe

>  <PUBCHEM_HEAVY_ATOM_COUNT>  (1) 
8

>  <PUBCHEM_ATOM_DEF_STEREO_COUNT>  (1) 
0

>  <PUBCHEM_ATOM_UDEF_STEREO_COUNT>  (1) 
1

>  <PUBCHEM_BOND_DEF_STEREO_COUNT>  (1) 
0

>  <PUBCHEM_BOND_UDEF_STEREO_COUNT>  (1) 
0

>  <PUBCHEM_ISOTOPIC_ATOM_COUNT>  (1) 
0

>  <PUBCHEM_COMPONENT_COUNT>  (1) 
1

>  <PUBCHEM_CACTVS_TAUTO_COUNT>  (1) 
1

>  <PUBCHEM_CONFORMER_ID>  (1) 
0000192800000001

>  <PUBCHEM_MMFF94_ENERGY>  (1) 
20.5713

>  <PUBCHEM_FEATURE_SELFOVERLAP>  (1) 
25.371

>  <PUBCHEM_SHAPE_FINGERPRINT>  (1) 
12423570 1 18115579507970824847
137420 1 16389670492455123823
21040471 1 17548420301989744008
24536 1 17769064896878322818
29004967 10 18340199782191816339
5943 1 18045534982416529893
68250623 7 16385725418917536337

>  <PUBCHEM_SHAPE_MULTIPOLES>  (1) 
152.9
2.12
1.59
1.17
0.33
0.05
0.27
0.74
-0.34
-0.21
-0.01
-0.01
-0.39
0.16

>  <PUBCHEM_SHAPE_SELFOVERLAP>  (1) 
278.576

>  <PUBCHEM_SHAPE_VOLUME>  (1) 
99.3

>  <PUBCHEM_COORDINATE_TYPE>  (1) 
2
5
10

$$$$
