6482
     RDKit          3D

 19 21  0  0  1  0  0  0  0  0999 V2000
   -2.4142    0.4854   -0.7653 O   0  0  0  0  0  0  0  0  0  0  0  0
   -3.2851   -0.0062    1.3172 O   0  0  0  0  0  0  0  0  0  0  0  0
    1.6392    0.4606    0.0961 C   0  0  0  0  0  0  0  0  0  0  0  0
    1.3397   -0.9269   -0.5563 C   0  0  0  0  0  0  0  0  0  0  0  0
   -0.0359   -1.3930    0.0161 C   0  0  0  0  0  0  0  0  0  0  0  0
   -0.5700   -0.0976    0.7409 C   0  0  0  0  0  0  0  0  0  0  0  0
    0.7333    0.4628    1.3344 C   0  0  0  0  0  0  0  0  0  0  0  0
    3.1466    0.4411    0.4543 C   0  0  0  0  0  0  0  0  0  0  0  0
    1.1816    1.6102   -0.8328 C   0  0  0  0  0  0  0  0  0  0  0  0
   -1.2279    1.0006   -0.1536 C   0  0  0  0  0  0  0  0  0  0  0  0
    2.5912   -1.7637   -0.2872 C   0  0  0  0  0  0  0  0  0  0  0  0
    3.7077   -0.7294   -0.3611 C   0  0  0  0  0  0  0  0  0  0  0  0
   -0.2841    1.4825   -1.2726 C   0  0  0  0  0  0  0  0  0  0  0  0
    0.0787   -2.5390    1.0517 C   0  0  0  0  0  0  0  0  0  0  0  0
   -0.9316   -1.9441   -1.1052 C   0  0  0  0  0  0  0  0  0  0  0  0
    3.9271    1.7272    0.2242 C   0  0  0  0  0  0  0  0  0  0  0  0
   -1.6970    2.2048    0.6837 C   0  0  0  0  0  0  0  0  0  0  0  0
   -3.3604    0.0141    0.0961 C   0  0  0  0  0  0  0  0  0  0  0  0
   -4.5389   -0.4895   -0.6807 C   0  0  0  0  0  0  0  0  0  0  0  0
  1 10  1  0
  1 18  1  0
  2 18  2  0
  3  4  1  0
  3  7  1  0
  3  8  1  0
  3  9  1  0
  4  5  1  0
  4 11  1  0
  5  6  1  0
  5 14  1  0
  5 15  1  0
  6  7  1  0
  6 10  1  0
  8 12  1  0
  8 16  1  0
  9 13  1  0
 10 13  1  0
 10 17  1  0
 11 12  1  0
 18 19  1  0
M  END
>  <PUBCHEM_COMPOUND_CID>  (1) 
6482

>  <PUBCHEM_CONFORMER_RMSD>  (1) 
0.6

>  <PUBCHEM_CONFORMER_DIVERSEORDER>  (1) 
3
12
13
10
5
11
1
7
6
4
9
2
8

>  <PUBCHEM_MMFF94_PARTIAL_CHARGES>  (1) 
5
1 -0.43
10 0.28
18 0.66
19 0.06
2 -0.57

>  <PUBCHEM_EFFECTIVE_ROTOR_COUNT>  (1) 
3.6

>  <PUBCHEM_PHARMACOPHORE_FEATURES>  (1) 
4
1 2 acceptor
3 5 14 15 hydrophobe
5 3 4 8 11 12 rings
8 3 4 5 6 7 9 10 13 rings

>  <PUBCHEM_HEAVY_ATOM_COUNT>  (1) 
19

>  <PUBCHEM_ATOM_DEF_STEREO_COUNT>  (1) 
2

>  <PUBCHEM_ATOM_UDEF_STEREO_COUNT>  (1) 
3

>  <PUBCHEM_BOND_DEF_STEREO_COUNT>  (1) 
0

>  <PUBCHEM_BOND_UDEF_STEREO_COUNT>  (1) 
0

>  <PUBCHEM_ISOTOPIC_ATOM_COUNT>  (1) 
0

>  <PUBCHEM_COMPONENT_COUNT>  (1) 
1

>  <PUBCHEM_CACTVS_TAUTO_COUNT>  (1) 
1

>  <PUBCHEM_CONFORMER_ID>  (1) 
0000195200000003

>  <PUBCHEM_MMFF94_ENERGY>  (1) 
89.0388

>  <PUBCHEM_FEATURE_SELFOVERLAP>  (1) 
20.35

>  <PUBCHEM_SHAPE_FINGERPRINT>  (1) 
10863032 1 17417809599304909422
10948715 1 18413387657166739452
10967382 1 18410574015516961076
11132069 177 18337103565979813808
11578080 2 16483869145368282851
11680986 33 18336276737815725066
11806522 49 18412822512695955135
12011746 2 18335706052821363380
12236239 1 17989208157857433199
12403259 226 18191299382610853030
12403814 3 18260818324005695932
12491281 212 17846787329177800274
13140716 1 18049723220002207720
13172582 1 18333735731751711580
13380535 76 18338796818598378530
13581323 91 18412824698554805308
13583140 156 16805596027264138712
14289901 80 18201999897874894976
14787075 74 18270674406498471393
14993402 34 18187367635887208852
15309172 13 18410016519960976739
15536298 74 18343865511146181662
15775835 57 18131635590603928865
16945 1 18201429277352293870
18186145 218 18130511821048506676
19422 9 17703512108103734867
200 152 18341607101631158869
20510252 161 18413669097536298936
20645477 70 18269547256961828895
21501502 16 17974566892806191051
22344851 262 18264488554222911460
22344851 341 18122626054787025146
2334 1 17617662493599830556
23402539 116 18336535097119965876
23419403 2 16468047194582348948
23559900 14 18130221683803476144
2748010 2 18191301585544227076
2871803 45 18337383851667367071
296302 2 17967533488590260837
3060560 45 18187635908319340775
3286 77 18341610357179322548
69090 78 18272085015397479006

>  <PUBCHEM_SHAPE_MULTIPOLES>  (1) 
379.27
6.11
2.31
1.17
1.68
0.44
0.08
-0.56
-0.24
-0.54
0.01
0.33
0.01
-0.05

>  <PUBCHEM_SHAPE_SELFOVERLAP>  (1) 
805.675

>  <PUBCHEM_SHAPE_VOLUME>  (1) 
215.9

>  <PUBCHEM_COORDINATE_TYPE>  (1) 
2
5
10

$$$$
