6490
     RDKit          3D

 15 14  0  0  1  0  0  0  0  0999 V2000
   -1.5623    0.5189    1.7379 O   0  0  0  0  0  0  0  0  0  0  0  0
    1.1375   -0.2592   -0.1962 O   0  0  0  0  0  0  0  0  0  0  0  0
    2.9427   -1.1005    0.9671 O   0  0  0  0  0  0  0  0  0  0  0  0
   -1.1798   -1.0625   -0.0710 C   0  0  0  0  0  0  0  0  0  0  0  0
   -1.7334    0.3499    0.3277 C   0  0  0  0  0  0  0  0  0  0  0  0
   -3.2020    0.6781   -0.0680 C   0  0  0  0  0  0  0  0  0  0  0  0
    0.2865   -1.2177    0.4200 C   0  0  0  0  0  0  0  0  0  0  0  0
   -1.1747   -1.2892   -1.5921 C   0  0  0  0  0  0  0  0  0  0  0  0
   -2.0326   -2.1683    0.5880 C   0  0  0  0  0  0  0  0  0  0  0  0
   -3.5676    2.0898    0.4191 C   0  0  0  0  0  0  0  0  0  0  0  0
   -3.4832    0.6108   -1.5745 C   0  0  0  0  0  0  0  0  0  0  0  0
    2.4573   -0.3095    0.1689 C   0  0  0  0  0  0  0  0  0  0  0  0
    3.2330    0.7754   -0.5575 C   0  0  0  0  0  0  0  0  0  0  0  0
    3.2132    2.0593    0.2635 C   0  0  0  0  0  0  0  0  0  0  0  0
    4.6652    0.3247   -0.8328 C   0  0  0  0  0  0  0  0  0  0  0  0
  1  5  1  0
  2  7  1  0
  2 12  1  0
  3 12  2  0
  4  5  1  0
  4  7  1  0
  4  8  1  0
  4  9  1  0
  5  6  1  0
  6 10  1  0
  6 11  1  0
 12 13  1  0
 13 14  1  0
 13 15  1  0
M  END
>  <PUBCHEM_COMPOUND_CID>  (1) 
6490

>  <PUBCHEM_CONFORMER_RMSD>  (1) 
0.6

>  <PUBCHEM_CONFORMER_DIVERSEORDER>  (1) 
1
15
54
98
87
73
81
90
22
100
97
12
96
51
32
83
58
67
2
94
82
95
80
72
9
19
69
84
44
63
93
101
102
61
85
28
24
53
4
26
14
91
50
38
89
60
37
42
77
55
65
104
71
29
62
49
20
25
103
31
30
18
13
99
79
21
7
6
56
75
34
46
11
40
86
48
36
3
23
88
76
57
70
92
33
35
10
39
52
64
47
5
66
41
45
27
68
8
43
59
16
17
74
78

>  <PUBCHEM_MMFF94_PARTIAL_CHARGES>  (1) 
8
1 -0.68
12 0.66
13 0.06
2 -0.43
3 -0.57
32 0.4
5 0.28
7 0.28

>  <PUBCHEM_EFFECTIVE_ROTOR_COUNT>  (1) 
6

>  <PUBCHEM_PHARMACOPHORE_FEATURES>  (1) 
6
1 1 acceptor
1 1 donor
1 3 acceptor
3 13 14 15 hydrophobe
3 4 8 9 hydrophobe
3 6 10 11 hydrophobe

>  <PUBCHEM_HEAVY_ATOM_COUNT>  (1) 
15

>  <PUBCHEM_ATOM_DEF_STEREO_COUNT>  (1) 
0

>  <PUBCHEM_ATOM_UDEF_STEREO_COUNT>  (1) 
1

>  <PUBCHEM_BOND_DEF_STEREO_COUNT>  (1) 
0

>  <PUBCHEM_BOND_UDEF_STEREO_COUNT>  (1) 
0

>  <PUBCHEM_ISOTOPIC_ATOM_COUNT>  (1) 
0

>  <PUBCHEM_COMPONENT_COUNT>  (1) 
1

>  <PUBCHEM_CACTVS_TAUTO_COUNT>  (1) 
1

>  <PUBCHEM_CONFORMER_ID>  (1) 
0000195A00000001

>  <PUBCHEM_MMFF94_ENERGY>  (1) 
38.7019

>  <PUBCHEM_FEATURE_SELFOVERLAP>  (1) 
30.447

>  <PUBCHEM_SHAPE_FINGERPRINT>  (1) 
11715629 250 17986112035865997872
12173636 292 18336543910377344887
122479 349 18411140220987046953
12251169 10 14996295724781137237
12932764 1 18114184159423072154
13296909 8 17895479240574527719
14123260 362 18261397766633488636
15239191 94 8935003689442939084
15775835 57 18334861606099824980
1741750 31 18409728473615802906
18186145 218 18408602543733879452
19868273 293 17989481918149941695
20279233 1 16271923827076618502
20281407 28 8718536216780091007
20645476 183 18272086093313146127
20653085 51 18342460309489842655
20671657 53 14261345873118428866
20871999 31 17274251876646303807
21524375 3 18268986501731336135
22182937 141 18411991277447216401
22485316 2 9079105661904152325
22646028 28 11167945753577953884
23382010 3 18271506672629291961
23402539 116 17131833131801190804
23419403 2 15579515386036273531
23557571 272 18339091504414586974
23559900 14 16559024979227732242
27216 239 17386009515353211805
4028521 119 18413951693646971772
474 4 18196092136521663385
633830 44 18267869367868627679
74978 22 18411699902681456538
7832392 63 18410293635873332212
90316 7 12252179632889637551

>  <PUBCHEM_SHAPE_MULTIPOLES>  (1) 
291.09
7.85
2.04
1.29
5.66
0.18
-0.22
3.88
-1.42
-0.94
0.33
-0.68
-0.09
-0.26

>  <PUBCHEM_SHAPE_SELFOVERLAP>  (1) 
550.539

>  <PUBCHEM_SHAPE_VOLUME>  (1) 
182.3

>  <PUBCHEM_COORDINATE_TYPE>  (1) 
2
5
10

$$$$
