6501
     RDKit          3D

 15 16  0  0  1  0  0  0  0  0999 V2000
    0.1468   -2.2862   -0.6252 O   0  0  0  0  0  0  0  0  0  0  0  0
   -2.3137    0.1361    0.2985 O   0  0  0  0  0  0  0  0  0  0  0  0
   -1.6475   -0.5578   -1.8018 O   0  0  0  0  0  0  0  0  0  0  0  0
    0.5445   -1.5185    0.5106 C   0  0  0  0  0  0  0  0  0  0  0  0
   -0.8968   -1.6876    0.1542 C   0  0  0  0  0  0  0  0  0  0  0  0
    1.2578   -0.2385    0.2398 C   0  0  0  0  0  0  0  0  0  0  0  0
    1.1079   -2.3439    1.6054 C   0  0  0  0  0  0  0  0  0  0  0  0
   -1.6442   -0.6605   -0.5825 C   0  0  0  0  0  0  0  0  0  0  0  0
    0.8108    0.9467    0.8239 C   0  0  0  0  0  0  0  0  0  0  0  0
    2.3728   -0.2258   -0.5982 C   0  0  0  0  0  0  0  0  0  0  0  0
    1.4790    2.1446    0.5701 C   0  0  0  0  0  0  0  0  0  0  0  0
    3.0409    0.9721   -0.8519 C   0  0  0  0  0  0  0  0  0  0  0  0
    2.5941    2.1572   -0.2677 C   0  0  0  0  0  0  0  0  0  0  0  0
   -3.0879    1.1870   -0.2883 C   0  0  0  0  0  0  0  0  0  0  0  0
   -3.7645    1.9750    0.8131 C   0  0  0  0  0  0  0  0  0  0  0  0
  1  4  1  0
  1  5  1  0
  2  8  1  0
  2 14  1  0
  3  8  2  0
  4  5  1  0
  4  6  1  0
  4  7  1  0
  5  8  1  0
  6  9  2  0
  6 10  1  0
  9 11  1  0
 10 12  2  0
 11 13  2  0
 12 13  1  0
 14 15  1  0
M  END
>  <PUBCHEM_COMPOUND_CID>  (1) 
6501

>  <PUBCHEM_CONFORMER_RMSD>  (1) 
0.6

>  <PUBCHEM_CONFORMER_DIVERSEORDER>  (1) 
8
26
75
36
43
15
37
74
63
85
62
49
1
77
44
30
45
84
47
23
6
10
7
17
13
39
87
70
83
76
53
86
14
42
89
20
71
34
3
27
4
56
57
80
11
31
69
72
58
28
40
5
24
61
16
22
90
60
51
38
19
78
21
82
32
65
55
18
88
54
92
29
79
91
33
41
67
35
9
50
52
59
48
64
2
66
46
68
12
73
81
25

>  <PUBCHEM_MMFF94_PARTIAL_CHARGES>  (1) 
20
1 -0.3
10 -0.15
11 -0.15
12 -0.15
13 -0.15
14 0.28
16 0.1
2 -0.43
20 0.15
21 0.15
22 0.15
23 0.15
24 0.15
3 -0.57
4 0.09
5 0.05
6 -0.03
7 0.09
8 0.72
9 -0.15

>  <PUBCHEM_EFFECTIVE_ROTOR_COUNT>  (1) 
4.6

>  <PUBCHEM_PHARMACOPHORE_FEATURES>  (1) 
3
1 1 acceptor
1 3 acceptor
6 6 9 10 11 12 13 rings

>  <PUBCHEM_HEAVY_ATOM_COUNT>  (1) 
15

>  <PUBCHEM_ATOM_DEF_STEREO_COUNT>  (1) 
0

>  <PUBCHEM_ATOM_UDEF_STEREO_COUNT>  (1) 
2

>  <PUBCHEM_BOND_DEF_STEREO_COUNT>  (1) 
0

>  <PUBCHEM_BOND_UDEF_STEREO_COUNT>  (1) 
0

>  <PUBCHEM_ISOTOPIC_ATOM_COUNT>  (1) 
0

>  <PUBCHEM_COMPONENT_COUNT>  (1) 
1

>  <PUBCHEM_CACTVS_TAUTO_COUNT>  (1) 
1

>  <PUBCHEM_CONFORMER_ID>  (1) 
0000196500000008

>  <PUBCHEM_MMFF94_ENERGY>  (1) 
27.2019

>  <PUBCHEM_FEATURE_SELFOVERLAP>  (1) 
15.228

>  <PUBCHEM_SHAPE_FINGERPRINT>  (1) 
10382601 240 18188497852173302728
10980938 120 18268147565753727145
12423570 1 14024869900160254034
12491281 212 18189902100615881580
12808571 1 18335142007171103391
13132413 78 18120916336060198664
13294875 104 18339907278039874216
13464514 151 18412553123852277964
13764800 53 17970910204910938627
13839132 238 18193555799187411964
14386348 128 18333453165911681149
15775835 57 18411142428600503533
16945 1 17983289619281555054
17357990 137 18129371601757583511
17844478 74 17758130567120001882
19837323 101 18195247938697342187
201361 129 18334582291465199633
20304884 271 18341334495355784397
20510252 161 17684927299040084379
20653085 51 18270129022845168130
20671657 1 18338228276270444859
21041028 32 17685771329007441306
21524375 3 18408320016506057455
22094290 62 18410853218213346592
22802520 49 17983303908621931076
23419403 2 17256312120057337235
23557571 272 16962396500576180308
23559900 14 18272096037391700276
238 59 17902476369491973437
25 1 18410584963235715268
25610 171 17109304443611856930
2637199 183 18130243561823556225
305870 269 18260535749696491248
31174 14 17823698547599798435
430814 3 18114179773828835735
549884 4 18131066056349975009
5939293 188 17908423550429482641
6442390 28 18116172119332720915
81228 2 17247523994431572130

>  <PUBCHEM_SHAPE_MULTIPOLES>  (1) 
291.09
4.87
2.83
1.22
3.34
0.32
-0.06
-4
-0.34
-0.49
0.75
0.07
0.35
-0.8

>  <PUBCHEM_SHAPE_SELFOVERLAP>  (1) 
607.101

>  <PUBCHEM_SHAPE_VOLUME>  (1) 
166.6

>  <PUBCHEM_COORDINATE_TYPE>  (1) 
2
5
10

$$$$
