6502
     RDKit          3D

  8  7  0  0  0  0  0  0  0  0999 V2000
    1.5046   -1.7395    0.4363 O   0  0  0  0  0  0  0  0  0  0  0  0
   -2.3949   -0.0280    0.5800 O   0  0  0  0  0  0  0  0  0  0  0  0
    1.4303    1.7931    0.4139 O   0  0  0  0  0  0  0  0  0  0  0  0
   -0.1019    0.0017   -0.2865 C   0  0  0  0  0  0  0  0  0  0  0  0
    1.0456   -0.9669   -0.6646 C   0  0  0  0  0  0  0  0  0  0  0  0
   -1.2890   -0.8481    0.2245 C   0  0  0  0  0  0  0  0  0  0  0  0
    0.3382    0.9829    0.8276 C   0  0  0  0  0  0  0  0  0  0  0  0
   -0.5328    0.8048   -1.5311 C   0  0  0  0  0  0  0  0  0  0  0  0
  1  5  1  0
  2  6  1  0
  3  7  1  0
  4  5  1  0
  4  6  1  0
  4  7  1  0
  4  8  1  0
M  END
>  <PUBCHEM_COMPOUND_CID>  (1) 
6502

>  <PUBCHEM_CONFORMER_RMSD>  (1) 
0.6

>  <PUBCHEM_CONFORMER_DIVERSEORDER>  (1) 
2
7
6
5
8
1
4
3

>  <PUBCHEM_MMFF94_PARTIAL_CHARGES>  (1) 
9
1 -0.68
18 0.4
19 0.4
2 -0.68
20 0.4
3 -0.68
5 0.28
6 0.28
7 0.28

>  <PUBCHEM_EFFECTIVE_ROTOR_COUNT>  (1) 
3

>  <PUBCHEM_PHARMACOPHORE_FEATURES>  (1) 
7
1 1 acceptor
1 1 donor
1 2 acceptor
1 2 donor
1 3 acceptor
1 3 donor
1 8 hydrophobe

>  <PUBCHEM_HEAVY_ATOM_COUNT>  (1) 
8

>  <PUBCHEM_ATOM_DEF_STEREO_COUNT>  (1) 
0

>  <PUBCHEM_ATOM_UDEF_STEREO_COUNT>  (1) 
0

>  <PUBCHEM_BOND_DEF_STEREO_COUNT>  (1) 
0

>  <PUBCHEM_BOND_UDEF_STEREO_COUNT>  (1) 
0

>  <PUBCHEM_ISOTOPIC_ATOM_COUNT>  (1) 
0

>  <PUBCHEM_COMPONENT_COUNT>  (1) 
1

>  <PUBCHEM_CACTVS_TAUTO_COUNT>  (1) 
1

>  <PUBCHEM_CONFORMER_ID>  (1) 
0000196600000002

>  <PUBCHEM_MMFF94_ENERGY>  (1) 
20.3573

>  <PUBCHEM_FEATURE_SELFOVERLAP>  (1) 
35.522

>  <PUBCHEM_SHAPE_FINGERPRINT>  (1) 
12423570 1 12939882859741568277
137420 1 15367015036756379172
20653091 64 18199488652224857467
21040471 1 17837218442737456552
23552449 11 18413393124686624051
24536 1 16127000484958591283
29004967 10 18128250090980451626
5943 1 14230345804198209085
68250623 7 17128473208865736598

>  <PUBCHEM_SHAPE_MULTIPOLES>  (1) 
147.03
2.03
1.66
1.15
0.82
0.05
0.39
-0.34
-0.48
-0.94
-0.21
0.12
0.28
0.26

>  <PUBCHEM_SHAPE_SELFOVERLAP>  (1) 
267.918

>  <PUBCHEM_SHAPE_VOLUME>  (1) 
93.7

>  <PUBCHEM_COORDINATE_TYPE>  (1) 
2
5
10

$$$$
