6534
     RDKit          3D

 10  9  0  0  0  0  0  0  0  0999 V2000
   -0.0402    0.4917   -0.5114 P   0  0  0  0  0  0  0  0  0  0  0  0
    1.3162   -0.3869   -0.6034 O   0  0  0  0  0  0  0  0  0  0  0  0
   -1.1831   -0.5988   -0.1577 O   0  0  0  0  0  0  0  0  0  0  0  0
   -0.3142    1.3008   -1.7467 O   0  0  0  0  0  0  0  0  0  0  0  0
    0.1346    1.4733    0.9664 C   0  0  0  0  0  0  0  0  0  0  0  0
    1.2733    2.4664    0.8686 C   0  0  0  0  0  0  0  0  0  0  0  0
    1.6701   -1.2891    0.4296 C   0  0  0  0  0  0  0  0  0  0  0  0
   -2.4769   -0.1476    0.2021 C   0  0  0  0  0  0  0  0  0  0  0  0
    2.9771   -1.9629    0.0694 C   0  0  0  0  0  0  0  0  0  0  0  0
   -3.3569   -1.3469    0.4831 C   0  0  0  0  0  0  0  0  0  0  0  0
  1  2  1  0
  1  3  1  0
  1  4  2  0
  1  5  1  0
  2  7  1  0
  3  8  1  0
  5  6  1  0
  7  9  1  0
  8 10  1  0
M  END
>  <PUBCHEM_COMPOUND_CID>  (1) 
6534

>  <PUBCHEM_CONFORMER_RMSD>  (1) 
0.6

>  <PUBCHEM_CONFORMER_DIVERSEORDER>  (1) 
1
12
21
17
6
22
20
2
7
8
24
9
27
23
13
14
25
19
18
4
11
26
16
10
15
3
5

>  <PUBCHEM_MMFF94_PARTIAL_CHARGES>  (1) 
6
1 1.24
2 -0.55
3 -0.55
4 -0.7
7 0.28
8 0.28

>  <PUBCHEM_EFFECTIVE_ROTOR_COUNT>  (1) 
5

>  <PUBCHEM_PHARMACOPHORE_FEATURES>  (1) 
1
1 4 acceptor

>  <PUBCHEM_HEAVY_ATOM_COUNT>  (1) 
10

>  <PUBCHEM_ATOM_DEF_STEREO_COUNT>  (1) 
0

>  <PUBCHEM_ATOM_UDEF_STEREO_COUNT>  (1) 
0

>  <PUBCHEM_BOND_DEF_STEREO_COUNT>  (1) 
0

>  <PUBCHEM_BOND_UDEF_STEREO_COUNT>  (1) 
0

>  <PUBCHEM_ISOTOPIC_ATOM_COUNT>  (1) 
0

>  <PUBCHEM_COMPONENT_COUNT>  (1) 
1

>  <PUBCHEM_CACTVS_TAUTO_COUNT>  (1) 
1

>  <PUBCHEM_CONFORMER_ID>  (1) 
0000198600000001

>  <PUBCHEM_MMFF94_ENERGY>  (1) 
-0.5051

>  <PUBCHEM_FEATURE_SELFOVERLAP>  (1) 
5.074

>  <PUBCHEM_SHAPE_FINGERPRINT>  (1) 
12932764 1 18198638816121306775
14128692 85 18113911420030221918
170605 34 17127909176934153177
17841504 4 18341896315980668507
20653091 64 18200606894131106289
20711978 78 18270099331636030645
20711985 344 16443892874330382727
21061003 4 18200862985930394138
23552449 11 18272092737938431787
3250762 1 18263625334247471117
528862 383 18129091393558855024
59915604 170 16009335169927632710
76951 1 17910428243441525868

>  <PUBCHEM_SHAPE_MULTIPOLES>  (1) 
192.04
4.13
2.47
1.12
2.17
0.87
0.37
-3.59
-0.89
-1.73
-0.64
0.02
0.52
0.42

>  <PUBCHEM_SHAPE_SELFOVERLAP>  (1) 
329.236

>  <PUBCHEM_SHAPE_VOLUME>  (1) 
128.8

>  <PUBCHEM_COORDINATE_TYPE>  (1) 
2
5
10

$$$$
