6541
     RDKit          3D

 14 13  0  0  0  0  0  0  0  0999 V2000
   -3.0109   -0.0920    1.1879 S   0  0  0  0  0  0  0  0  0  0  0  0
   -0.0924   -0.3055    1.7815 S   0  0  0  0  0  0  0  0  0  0  0  0
    3.3912   -0.0700    1.9495 S   0  0  0  0  0  0  0  0  0  0  0  0
    1.7831    0.0080    0.8290 P   0  0  0  0  0  0  0  0  0  0  0  0
    1.8353   -0.9918   -0.4622 O   0  0  0  0  0  0  0  0  0  0  0  0
    1.6204    1.4428    0.0607 O   0  0  0  0  0  0  0  0  0  0  0  0
   -3.9381    0.3934   -0.2868 C   0  0  0  0  0  0  0  0  0  0  0  0
   -1.3340    0.1065    0.5295 C   0  0  0  0  0  0  0  0  0  0  0  0
   -3.5961   -0.5422   -1.4402 C   0  0  0  0  0  0  0  0  0  0  0  0
   -5.4314    0.3792    0.0171 C   0  0  0  0  0  0  0  0  0  0  0  0
    1.9751   -2.3904   -0.2774 C   0  0  0  0  0  0  0  0  0  0  0  0
    2.6085    1.8909   -0.8523 C   0  0  0  0  0  0  0  0  0  0  0  0
    1.9944   -3.0672   -1.6314 C   0  0  0  0  0  0  0  0  0  0  0  0
    2.1948    3.2382   -1.4048 C   0  0  0  0  0  0  0  0  0  0  0  0
  1  7  1  0
  1  8  1  0
  2  4  1  0
  2  8  1  0
  3  4  2  0
  4  5  1  0
  4  6  1  0
  5 11  1  0
  6 12  1  0
  7  9  1  0
  7 10  1  0
 11 13  1  0
 12 14  1  0
M  END
>  <PUBCHEM_COMPOUND_CID>  (1) 
6541

>  <PUBCHEM_CONFORMER_RMSD>  (1) 
0.8

>  <PUBCHEM_CONFORMER_DIVERSEORDER>  (1) 
1
22
34
21
41
7
27
42
6
39
61
3
25
28
14
77
76
57
15
17
4
2
30
73
68
8
63
19
43
64
9
49
13
66
20
72
40
65
44
31
67
47
56
75
23
5
38
52
36
70
51
26
32
45
12
37
59
24
69
53
48
29
10
11
50
35
18
60
33
71
55
46
16
54
58
74
62

>  <PUBCHEM_MMFF94_PARTIAL_CHARGES>  (1) 
10
1 -0.46
11 0.28
12 0.28
2 -0.48
3 -0.68
4 1.47
5 -0.55
6 -0.55
7 0.23
8 0.46

>  <PUBCHEM_EFFECTIVE_ROTOR_COUNT>  (1) 
8

>  <PUBCHEM_PHARMACOPHORE_FEATURES>  (1) 
1
3 7 9 10 hydrophobe

>  <PUBCHEM_HEAVY_ATOM_COUNT>  (1) 
14

>  <PUBCHEM_ATOM_DEF_STEREO_COUNT>  (1) 
0

>  <PUBCHEM_ATOM_UDEF_STEREO_COUNT>  (1) 
0

>  <PUBCHEM_BOND_DEF_STEREO_COUNT>  (1) 
0

>  <PUBCHEM_BOND_UDEF_STEREO_COUNT>  (1) 
0

>  <PUBCHEM_ISOTOPIC_ATOM_COUNT>  (1) 
0

>  <PUBCHEM_COMPONENT_COUNT>  (1) 
1

>  <PUBCHEM_CACTVS_TAUTO_COUNT>  (1) 
1

>  <PUBCHEM_CONFORMER_ID>  (1) 
0000198D00000001

>  <PUBCHEM_MMFF94_ENERGY>  (1) 
6.2993

>  <PUBCHEM_FEATURE_SELFOVERLAP>  (1) 
5.074

>  <PUBCHEM_SHAPE_FINGERPRINT>  (1) 
10756046 70 18191010400263462984
12616999 72 18342178911970119491
13899415 180 18118675513898624526
14863182 85 17989485221365128350
15342816 4 16630518545069686889
17539 30 17399809198431539870
18186145 218 17676206866662942281
19786989 88 18261957452554001115
20233049 118 16443613602503226152
20645477 70 18334580157024683041
20671657 53 18122066407716481091
21524375 3 17611764687606537344
23532345 88 18271252612170226007
23598291 2 17913512158945845953
3060560 45 18339089280191181564
4175511 335 17989201547153730560
5262128 65 18263371308427321889
633830 44 18260548888660767737

>  <PUBCHEM_SHAPE_MULTIPOLES>  (1) 
291.77
8.51
2.89
1.95
13.03
0.25
-0.25
1.19
0.43
-4.56
2.67
-1.11
-0.33
-0.27

>  <PUBCHEM_SHAPE_SELFOVERLAP>  (1) 
478.534

>  <PUBCHEM_SHAPE_VOLUME>  (1) 
203.4

>  <PUBCHEM_COORDINATE_TYPE>  (1) 
2
5
10

$$$$
