6546
     RDKit          3D

 12 11  0  0  1  0  0  0  0  0999 V2000
   -2.3535    0.9540   -1.2331 O   0  0  0  0  0  0  0  0  0  0  0  0
    2.5041   -0.4095    1.4491 O   0  0  0  0  0  0  0  0  0  0  0  0
   -2.0019    0.5126    0.0781 C   0  0  0  0  0  0  0  0  0  0  0  0
    2.0180   -0.5137    0.1111 C   0  0  0  0  0  0  0  0  0  0  0  0
   -2.8845   -0.6885    0.4708 C   0  0  0  0  0  0  0  0  0  0  0  0
    2.8406    0.4099   -0.8087 C   0  0  0  0  0  0  0  0  0  0  0  0
   -2.2371    1.6778    1.0444 C   0  0  0  0  0  0  0  0  0  0  0  0
    2.1718   -1.9722   -0.3323 C   0  0  0  0  0  0  0  0  0  0  0  0
   -0.5735    0.1500    0.0870 C   0  0  0  0  0  0  0  0  0  0  0  0
    0.5908   -0.1462    0.0972 C   0  0  0  0  0  0  0  0  0  0  0  0
   -2.8002   -1.8681   -0.4947 C   0  0  0  0  0  0  0  0  0  0  0  0
    2.7253    1.8938   -0.4690 C   0  0  0  0  0  0  0  0  0  0  0  0
  1  3  1  0
  2  4  1  0
  3  5  1  0
  3  7  1  0
  3  9  1  0
  4  6  1  0
  4  8  1  0
  4 10  1  0
  5 11  1  0
  6 12  1  0
  9 10  3  0
M  END
>  <PUBCHEM_COMPOUND_CID>  (1) 
6546

>  <PUBCHEM_CONFORMER_RMSD>  (1) 
0.6

>  <PUBCHEM_CONFORMER_DIVERSEORDER>  (1) 
1
12
2
7
8
5
10
11
3
4
6
9

>  <PUBCHEM_MMFF94_PARTIAL_CHARGES>  (1) 
8
1 -0.68
10 -0.2
2 -0.68
29 0.4
3 0.48
30 0.4
4 0.48
9 -0.2

>  <PUBCHEM_EFFECTIVE_ROTOR_COUNT>  (1) 
2

>  <PUBCHEM_PHARMACOPHORE_FEATURES>  (1) 
6
1 1 acceptor
1 1 donor
1 11 hydrophobe
1 12 hydrophobe
1 2 acceptor
1 2 donor

>  <PUBCHEM_HEAVY_ATOM_COUNT>  (1) 
12

>  <PUBCHEM_ATOM_DEF_STEREO_COUNT>  (1) 
0

>  <PUBCHEM_ATOM_UDEF_STEREO_COUNT>  (1) 
2

>  <PUBCHEM_BOND_DEF_STEREO_COUNT>  (1) 
0

>  <PUBCHEM_BOND_UDEF_STEREO_COUNT>  (1) 
0

>  <PUBCHEM_ISOTOPIC_ATOM_COUNT>  (1) 
0

>  <PUBCHEM_COMPONENT_COUNT>  (1) 
1

>  <PUBCHEM_CACTVS_TAUTO_COUNT>  (1) 
1

>  <PUBCHEM_CONFORMER_ID>  (1) 
0000199200000001

>  <PUBCHEM_MMFF94_ENERGY>  (1) 
13.74

>  <PUBCHEM_FEATURE_SELFOVERLAP>  (1) 
30.446

>  <PUBCHEM_SHAPE_FINGERPRINT>  (1) 
12932764 1 17604437296899226472
15775835 57 18113342998240823773
170605 34 18187370986399633916
19973954 147 18338802221261191376
20082192 1 18262511490202350322
20653085 51 17969781878632592197
21524375 3 17972042706694529940
23235687 12 18261391109407604308
23552423 10 18337674118004594379
25610 137 18267593592202677297
3248919 1 18341887450846266491
369184 2 17530685385877009985
58051976 378 18343304811740046246
74978 22 18266180539050527381
8030462 33 17917706864261641213
93112 12 18338520733336067710
9939556 21 18339931398185642522

>  <PUBCHEM_SHAPE_MULTIPOLES>  (1) 
235.22
5.73
1.98
1.04
0.06
0.19
0.09
0.08
-0.34
0.05
-0.14
-0.05
-0.17
-0.6

>  <PUBCHEM_SHAPE_SELFOVERLAP>  (1) 
444.848

>  <PUBCHEM_SHAPE_VOLUME>  (1) 
145.7

>  <PUBCHEM_COORDINATE_TYPE>  (1) 
2
5
10

$$$$
