6549
     RDKit          3D

 11 10  0  0  1  0  0  0  0  0999 V2000
    2.5076   -0.9774   -1.4002 O   0  0  0  0  0  0  0  0  0  0  0  0
    1.8830   -0.4122   -0.2342 C   0  0  0  0  0  0  0  0  0  0  0  0
    0.3689   -0.7150   -0.3439 C   0  0  0  0  0  0  0  0  0  0  0  0
   -0.4866   -0.1797    0.8095 C   0  0  0  0  0  0  0  0  0  0  0  0
    2.5075   -1.1429    0.9608 C   0  0  0  0  0  0  0  0  0  0  0  0
    2.1411    1.0800   -0.2757 C   0  0  0  0  0  0  0  0  0  0  0  0
   -1.9254   -0.5861    0.6467 C   0  0  0  0  0  0  0  0  0  0  0  0
   -2.9016    0.0890    0.0107 C   0  0  0  0  0  0  0  0  0  0  0  0
   -4.3257   -0.3726   -0.1177 C   0  0  0  0  0  0  0  0  0  0  0  0
   -2.6098    1.4061   -0.6568 C   0  0  0  0  0  0  0  0  0  0  0  0
    2.8410    1.8107    0.6008 C   0  0  0  0  0  0  0  0  0  0  0  0
  1  2  1  0
  2  3  1  0
  2  5  1  0
  2  6  1  0
  3  4  1  0
  4  7  1  0
  6 11  2  0
  7  8  2  3
  8  9  1  0
  8 10  1  0
M  END
>  <PUBCHEM_COMPOUND_CID>  (1) 
6549

>  <PUBCHEM_CONFORMER_RMSD>  (1) 
0.6

>  <PUBCHEM_CONFORMER_DIVERSEORDER>  (1) 
7
41
12
38
13
39
29
20
50
44
34
9
16
52
28
17
30
32
33
5
42
26
10
36
18
35
15
27
8
31
37
21
2
23
24
46
11
40
22
48
19
3
49
1
47
45
14
51
25
6
43
4

>  <PUBCHEM_MMFF94_PARTIAL_CHARGES>  (1) 
14
1 -0.68
10 0.14
11 -0.3
19 0.15
2 0.42
20 0.15
21 0.4
28 0.15
29 0.15
4 0.14
6 -0.29
7 -0.29
8 -0.28
9 0.14

>  <PUBCHEM_EFFECTIVE_ROTOR_COUNT>  (1) 
4

>  <PUBCHEM_PHARMACOPHORE_FEATURES>  (1) 
4
1 1 acceptor
1 1 donor
1 11 hydrophobe
3 8 9 10 hydrophobe

>  <PUBCHEM_HEAVY_ATOM_COUNT>  (1) 
11

>  <PUBCHEM_ATOM_DEF_STEREO_COUNT>  (1) 
0

>  <PUBCHEM_ATOM_UDEF_STEREO_COUNT>  (1) 
1

>  <PUBCHEM_BOND_DEF_STEREO_COUNT>  (1) 
0

>  <PUBCHEM_BOND_UDEF_STEREO_COUNT>  (1) 
0

>  <PUBCHEM_ISOTOPIC_ATOM_COUNT>  (1) 
0

>  <PUBCHEM_COMPONENT_COUNT>  (1) 
1

>  <PUBCHEM_CACTVS_TAUTO_COUNT>  (1) 
1

>  <PUBCHEM_CONFORMER_ID>  (1) 
0000199500000007

>  <PUBCHEM_MMFF94_ENERGY>  (1) 
16.2723

>  <PUBCHEM_FEATURE_SELFOVERLAP>  (1) 
20.297

>  <PUBCHEM_SHAPE_FINGERPRINT>  (1) 
12162725 195 18410008814969151665
12616999 72 17561084751791022415
12932764 1 18261119555969079259
14325111 11 18333730213114297201
14344429 50 18408603643672800986
14390081 3 18259703397972234169
15775835 57 18201156675540886829
17041 50 18269282270269465972
170605 34 18341050834509674032
18186145 218 18408889503705508969
19973954 147 18335424547368625989
20606313 2 18341893021419258793
20645477 70 18272653433124038087
20653085 51 18341340976857027713
20671657 53 17987533506710878110
21524375 3 17981886655635610376
21947302 44 18408321116054744976
22096605 113 18342454902052196633
230 275 18041283244008432124
23557571 272 18190754217853435859
3248919 1 17775287144812296067
57812782 119 18333728001084898387
8030462 33 17822018583652446963

>  <PUBCHEM_SHAPE_MULTIPOLES>  (1) 
220.51
6.67
1.51
1.02
4.8
0.57
0.11
0.69
0.18
-0.96
-0.08
-0.54
-0.15
0.53

>  <PUBCHEM_SHAPE_SELFOVERLAP>  (1) 
410.188

>  <PUBCHEM_SHAPE_VOLUME>  (1) 
139.5

>  <PUBCHEM_COORDINATE_TYPE>  (1) 
2
5
10

$$$$
