655
     RDKit          3D

  9  8  0  0  0  0  0  0  0  0999 V2000
    0.4731    2.5307   -0.8550 S   0  0  0  0  0  0  0  0  0  0  0  0
    0.0135    0.8634    0.0326 P   0  0  0  0  0  0  0  0  0  0  0  0
    0.9640   -0.4135   -0.2853 O   0  0  0  0  0  0  0  0  0  0  0  0
   -1.4804    0.3245   -0.3073 O   0  0  0  0  0  0  0  0  0  0  0  0
    0.0170    0.9262    1.6548 O   0  0  0  0  0  0  0  0  0  0  0  0
    2.3120   -0.4162    0.1525 C   0  0  0  0  0  0  0  0  0  0  0  0
   -1.9227   -0.9325    0.1746 C   0  0  0  0  0  0  0  0  0  0  0  0
    2.9658   -1.7138   -0.2720 C   0  0  0  0  0  0  0  0  0  0  0  0
   -3.3423   -1.1688   -0.2949 C   0  0  0  0  0  0  0  0  0  0  0  0
  1  2  2  0
  2  3  1  0
  2  4  1  0
  2  5  1  0
  3  6  1  0
  4  7  1  0
  6  8  1  0
  7  9  1  0
M  END
>  <PUBCHEM_COMPOUND_CID>  (1) 
655

>  <PUBCHEM_CONFORMER_RMSD>  (1) 
0.6

>  <PUBCHEM_CONFORMER_DIVERSEORDER>  (1) 
1
15
7
11
9
12
5
13
6
3
4
10
2
14
8

>  <PUBCHEM_MMFF94_PARTIAL_CHARGES>  (1) 
8
1 -0.68
2 1.49
20 0.5
3 -0.55
4 -0.55
5 -0.77
6 0.28
7 0.28

>  <PUBCHEM_EFFECTIVE_ROTOR_COUNT>  (1) 
4

>  <PUBCHEM_PHARMACOPHORE_FEATURES>  (1) 
1
1 5 acceptor

>  <PUBCHEM_HEAVY_ATOM_COUNT>  (1) 
9

>  <PUBCHEM_ATOM_DEF_STEREO_COUNT>  (1) 
0

>  <PUBCHEM_ATOM_UDEF_STEREO_COUNT>  (1) 
0

>  <PUBCHEM_BOND_DEF_STEREO_COUNT>  (1) 
0

>  <PUBCHEM_BOND_UDEF_STEREO_COUNT>  (1) 
0

>  <PUBCHEM_ISOTOPIC_ATOM_COUNT>  (1) 
0

>  <PUBCHEM_COMPONENT_COUNT>  (1) 
1

>  <PUBCHEM_CACTVS_TAUTO_COUNT>  (1) 
2

>  <PUBCHEM_CONFORMER_ID>  (1) 
0000028F00000001

>  <PUBCHEM_MMFF94_ENERGY>  (1) 
-13.6758

>  <PUBCHEM_FEATURE_SELFOVERLAP>  (1) 
5.074

>  <PUBCHEM_SHAPE_FINGERPRINT>  (1) 
14128692 85 18340494451239345596
14390081 3 8070031055930640887
20645477 70 18118676863067228511
20653085 51 11602831163716564594
20711985 344 18118674422754969489
23552423 10 18193275419538248383
23552449 1 18191583043531082940
528862 383 18194115454700457116
76951 1 17270899568577705624

>  <PUBCHEM_SHAPE_MULTIPOLES>  (1) 
175.31
4.31
2.33
0.97
1.48
1.44
-0.36
-3.88
0.71
-0.99
0.63
-0.03
0.32
-0.03

>  <PUBCHEM_SHAPE_SELFOVERLAP>  (1) 
290.379

>  <PUBCHEM_SHAPE_VOLUME>  (1) 
121.9

>  <PUBCHEM_COORDINATE_TYPE>  (1) 
2
5
10

$$$$
