6551
     RDKit          3D

 10 10  0  0  1  0  0  0  0  0999 V2000
   -0.0351    0.8722    1.1909 O   0  0  0  0  0  0  0  0  0  0  0  0
   -2.5420    0.9574   -1.2187 O   0  0  0  0  0  0  0  0  0  0  0  0
   -0.9859    0.1455    0.4019 C   0  0  0  0  0  0  0  0  0  0  0  0
    0.2765    0.6808   -0.1887 C   0  0  0  0  0  0  0  0  0  0  0  0
   -1.1429   -1.2778    0.7865 C   0  0  0  0  0  0  0  0  0  0  0  0
    1.4694   -0.1904   -0.4346 C   0  0  0  0  0  0  0  0  0  0  0  0
   -2.2613    0.8683    0.1808 C   0  0  0  0  0  0  0  0  0  0  0  0
    2.7688    0.4974   -0.0199 C   0  0  0  0  0  0  0  0  0  0  0  0
   -1.5266   -2.1770   -0.3945 C   0  0  0  0  0  0  0  0  0  0  0  0
    3.9793   -0.3765   -0.3037 C   0  0  0  0  0  0  0  0  0  0  0  0
  1  3  1  0
  1  4  1  0
  2  7  1  0
  3  4  1  0
  3  5  1  0
  3  7  1  0
  4  6  1  0
  5  9  1  0
  6  8  1  0
  8 10  1  0
M  END
>  <PUBCHEM_COMPOUND_CID>  (1) 
6551

>  <PUBCHEM_CONFORMER_RMSD>  (1) 
0.6

>  <PUBCHEM_CONFORMER_DIVERSEORDER>  (1) 
1
42
96
103
108
11
61
98
81
102
113
55
97
114
88
75
36
104
100
116
27
62
52
63
107
17
115
31
110
118
84
25
16
111
57
117
58
112
87
69
95
8
14
45
94
22
66
13
46
82
12
33
44
109
48
24
26
28
77
67
68
76
18
71
35
101
105
54
3
23
93
47
21
32
99
56
50
53
4
83
7
65
34
15
70
6
85
10
59
91
89
38
80
9
2
40
74
30
106
19
78
90
60
20
79
49
5
39
92
72
64
86
41
43
37
73
29
51

>  <PUBCHEM_MMFF94_PARTIAL_CHARGES>  (1) 
9
1 -0.3
11 0.1
2 -0.68
26 0.4
3 -0.04
4 -0.05
5 0.09
6 0.09
7 0.38

>  <PUBCHEM_EFFECTIVE_ROTOR_COUNT>  (1) 
4.6

>  <PUBCHEM_PHARMACOPHORE_FEATURES>  (1) 
5
1 1 acceptor
1 10 hydrophobe
1 2 acceptor
1 2 donor
1 9 hydrophobe

>  <PUBCHEM_HEAVY_ATOM_COUNT>  (1) 
10

>  <PUBCHEM_ATOM_DEF_STEREO_COUNT>  (1) 
0

>  <PUBCHEM_ATOM_UDEF_STEREO_COUNT>  (1) 
2

>  <PUBCHEM_BOND_DEF_STEREO_COUNT>  (1) 
0

>  <PUBCHEM_BOND_UDEF_STEREO_COUNT>  (1) 
0

>  <PUBCHEM_ISOTOPIC_ATOM_COUNT>  (1) 
0

>  <PUBCHEM_COMPONENT_COUNT>  (1) 
1

>  <PUBCHEM_CACTVS_TAUTO_COUNT>  (1) 
1

>  <PUBCHEM_CONFORMER_ID>  (1) 
0000199700000001

>  <PUBCHEM_MMFF94_ENERGY>  (1) 
9.044

>  <PUBCHEM_FEATURE_SELFOVERLAP>  (1) 
25.371

>  <PUBCHEM_SHAPE_FINGERPRINT>  (1) 
12138202 97 18410006628577610143
12716758 59 18410849975544641376
12932741 1 18202281441987729072
12932764 1 18113340829783505664
13024252 1 15647061485874875921
14577589 140 18187089433865611506
20201158 50 18202568350066440150
20653085 51 17675931988307839148
20871998 184 18341345481861262447
22959321 105 18339361984923755724
23402539 116 18341887464100817101
23552423 10 18189339146351363344
3248919 1 17846510218489099452
369184 2 18341338850610728832
6333449 129 18411700993159869134

>  <PUBCHEM_SHAPE_MULTIPOLES>  (1) 
194.06
4.85
1.57
0.95
5.32
0.9
0
0.03
0.91
-1.24
0.11
-0.4
-0.11
0.24

>  <PUBCHEM_SHAPE_SELFOVERLAP>  (1) 
367.14

>  <PUBCHEM_SHAPE_VOLUME>  (1) 
122.4

>  <PUBCHEM_COORDINATE_TYPE>  (1) 
2
5
10

$$$$
