6587
     RDKit          3D

  5  4  0  0  0  0  0  0  0  0999 V2000
    1.0761    1.0889    0.1633 O   0  0  0  0  0  0  0  0  0  0  0  0
    1.0351   -1.1139    0.1421 O   0  0  0  0  0  0  0  0  0  0  0  0
    0.5295   -0.0004   -0.0865 N   0  0  0  0  0  0  0  0  0  0  0  0
   -0.8191    0.0276   -0.6742 C   0  0  0  0  0  0  0  0  0  0  0  0
   -1.8216   -0.0022    0.4553 C   0  0  0  0  0  0  0  0  0  0  0  0
  1  3  1  0
  2  3  2  0
  3  4  1  0
  4  5  1  0
M  CHG  2   1  -1   3   1
M  END
>  <PUBCHEM_COMPOUND_CID>  (1) 
6587

>  <PUBCHEM_CONFORMER_RMSD>  (1) 
0.4

>  <PUBCHEM_CONFORMER_DIVERSEORDER>  (1) 
1
2

>  <PUBCHEM_MMFF94_PARTIAL_CHARGES>  (1) 
4
1 -0.52
2 -0.52
3 0.8
4 0.24

>  <PUBCHEM_EFFECTIVE_ROTOR_COUNT>  (1) 
1

>  <PUBCHEM_PHARMACOPHORE_FEATURES>  (1) 
3
1 1 acceptor
1 1 anion
1 2 acceptor

>  <PUBCHEM_HEAVY_ATOM_COUNT>  (1) 
5

>  <PUBCHEM_ATOM_DEF_STEREO_COUNT>  (1) 
0

>  <PUBCHEM_ATOM_UDEF_STEREO_COUNT>  (1) 
0

>  <PUBCHEM_BOND_DEF_STEREO_COUNT>  (1) 
0

>  <PUBCHEM_BOND_UDEF_STEREO_COUNT>  (1) 
0

>  <PUBCHEM_ISOTOPIC_ATOM_COUNT>  (1) 
0

>  <PUBCHEM_COMPONENT_COUNT>  (1) 
1

>  <PUBCHEM_CACTVS_TAUTO_COUNT>  (1) 
2

>  <PUBCHEM_CONFORMER_ID>  (1) 
000019BB00000001

>  <PUBCHEM_MMFF94_ENERGY>  (1) 
1.3826

>  <PUBCHEM_FEATURE_SELFOVERLAP>  (1) 
15.302

>  <PUBCHEM_SHAPE_FINGERPRINT>  (1) 
139733 1 10014992371317744910
20096714 4 17988367082205512457
21015797 1 8213046805176497214
5943 1 13605877410682762038

>  <PUBCHEM_SHAPE_MULTIPOLES>  (1) 
86.18
1.91
0.97
0.72
0.65
0.02
-0.07
-0.01
0.31
-0.44
0.07
0.19
-0.01
0.01

>  <PUBCHEM_SHAPE_SELFOVERLAP>  (1) 
149.225

>  <PUBCHEM_SHAPE_VOLUME>  (1) 
58

>  <PUBCHEM_COORDINATE_TYPE>  (1) 
2
5
10

$$$$
