6603
     RDKit          3D

 11 11  0  0  0  0  0  0  0  0999 V2000
   -0.0001    0.7809   -0.3441 N   0  0  0  0  0  0  0  0  0  0  0  0
    1.2809    0.0839   -0.0299 C   0  0  0  0  0  0  0  0  0  0  0  0
   -1.2808    0.0838   -0.0298 C   0  0  0  0  0  0  0  0  0  0  0  0
    1.2278   -1.4200   -0.4031 C   0  0  0  0  0  0  0  0  0  0  0  0
   -1.2275   -1.4201   -0.4030 C   0  0  0  0  0  0  0  0  0  0  0  0
    0.0002   -2.1246    0.1394 C   0  0  0  0  0  0  0  0  0  0  0  0
    1.7373    0.2239    1.4406 C   0  0  0  0  0  0  0  0  0  0  0  0
    2.4138    0.6816   -0.9099 C   0  0  0  0  0  0  0  0  0  0  0  0
   -2.4140    0.6812   -0.9100 C   0  0  0  0  0  0  0  0  0  0  0  0
   -1.7373    0.2239    1.4407 C   0  0  0  0  0  0  0  0  0  0  0  0
   -0.0002    2.2056    0.0091 C   0  0  0  0  0  0  0  0  0  0  0  0
  1  2  1  0
  1  3  1  0
  1 11  1  0
  2  4  1  0
  2  7  1  0
  2  8  1  0
  3  5  1  0
  3  9  1  0
  3 10  1  0
  4  6  1  0
  5  6  1  0
M  END
>  <PUBCHEM_COMPOUND_CID>  (1) 
6603

>  <PUBCHEM_CONFORMER_RMSD>  (1) 
0.4

>  <PUBCHEM_CONFORMER_DIVERSEORDER>  (1) 
2
1
4
3

>  <PUBCHEM_MMFF94_PARTIAL_CHARGES>  (1) 
4
1 -0.81
11 0.27
2 0.27
3 0.27

>  <PUBCHEM_EFFECTIVE_ROTOR_COUNT>  (1) 
1.2

>  <PUBCHEM_PHARMACOPHORE_FEATURES>  (1) 
4
1 1 cation
3 2 7 8 hydrophobe
3 3 9 10 hydrophobe
6 1 2 3 4 5 6 rings

>  <PUBCHEM_HEAVY_ATOM_COUNT>  (1) 
11

>  <PUBCHEM_ATOM_DEF_STEREO_COUNT>  (1) 
0

>  <PUBCHEM_ATOM_UDEF_STEREO_COUNT>  (1) 
0

>  <PUBCHEM_BOND_DEF_STEREO_COUNT>  (1) 
0

>  <PUBCHEM_BOND_UDEF_STEREO_COUNT>  (1) 
0

>  <PUBCHEM_ISOTOPIC_ATOM_COUNT>  (1) 
0

>  <PUBCHEM_COMPONENT_COUNT>  (1) 
1

>  <PUBCHEM_CACTVS_TAUTO_COUNT>  (1) 
1

>  <PUBCHEM_CONFORMER_ID>  (1) 
000019CB00000002

>  <PUBCHEM_MMFF94_ENERGY>  (1) 
27.8146

>  <PUBCHEM_FEATURE_SELFOVERLAP>  (1) 
20.297

>  <PUBCHEM_SHAPE_FINGERPRINT>  (1) 
12423570 1 13242772341358123979
13024252 1 15720804743007469972
15310529 11 17095522941230436277
16945 1 17632578253329948978
18185500 45 18412822486525393607
21040471 1 18410847772179049494
21922407 69 16372126817982069554
23235685 24 18341342161867016105
23552423 10 18047752594327150565
241688 4 18341613681014803539
2748010 2 18411703187893841630
29004967 10 18261408718741986513
5084963 1 18272370875393257167
528886 8 18339659883338376520

>  <PUBCHEM_SHAPE_MULTIPOLES>  (1) 
221.39
2.84
2
1.19
0
0.28
0.39
-0.52
-0.32
0
-0.17
0
-0.16
0

>  <PUBCHEM_SHAPE_SELFOVERLAP>  (1) 
429.484

>  <PUBCHEM_SHAPE_VOLUME>  (1) 
137.3

>  <PUBCHEM_COORDINATE_TYPE>  (1) 
2
5
10

$$$$
