6605
     RDKit          3D

 30 33  0  0  1  0  0  0  0  0999 V2000
    2.2415   -0.3714   -1.8146 Cl  0  0  0  0  0  0  0  0  0  0  0  0
    1.6188   -3.1534   -0.2015 Cl  0  0  0  0  0  0  0  0  0  0  0  0
   -2.4013   -0.0924   -1.7912 O   0  0  0  0  0  0  0  0  0  0  0  0
   -3.5514   -1.5762    0.6063 O   0  0  0  0  0  0  0  0  0  0  0  0
   -6.0288   -0.5796   -0.0583 O   0  0  0  0  0  0  0  0  0  0  0  0
    7.1265   -0.0644   -1.2729 O   0  0  0  0  0  0  0  0  0  0  0  0
   -7.5133    1.1900   -0.1047 O   0  0  0  0  0  0  0  0  0  0  0  0
   -1.0874   -0.1071    0.2822 C   0  0  0  0  0  0  0  0  0  0  0  0
   -0.2035    1.0496   -0.2336 C   0  0  0  0  0  0  0  0  0  0  0  0
    1.2119    1.0262    0.3640 C   0  0  0  0  0  0  0  0  0  0  0  0
    1.9785   -0.3276    0.0111 C   0  0  0  0  0  0  0  0  0  0  0  0
   -2.4269    0.2609   -0.4113 C   0  0  0  0  0  0  0  0  0  0  0  0
   -0.4183   -1.4193   -0.1485 C   0  0  0  0  0  0  0  0  0  0  0  0
   -1.0742    2.2843   -0.0022 C   0  0  0  0  0  0  0  0  0  0  0  0
    1.0363   -1.5488    0.3761 C   0  0  0  0  0  0  0  0  0  0  0  0
    3.4279   -0.3033    0.7124 C   0  0  0  0  0  0  0  0  0  0  0  0
   -2.5111    1.7971   -0.2744 C   0  0  0  0  0  0  0  0  0  0  0  0
    2.0081    2.2869   -0.0155 C   0  0  0  0  0  0  0  0  0  0  0  0
   -1.2784   -0.1071    1.8265 C   0  0  0  0  0  0  0  0  0  0  0  0
    3.3854    2.2927    0.6349 C   0  0  0  0  0  0  0  0  0  0  0  0
    4.1283    1.0177    0.3313 C   0  0  0  0  0  0  0  0  0  0  0  0
   -3.6328   -0.4443    0.1315 C   0  0  0  0  0  0  0  0  0  0  0  0
    3.3199   -0.3688    2.2585 C   0  0  0  0  0  0  0  0  0  0  0  0
    4.3135   -1.4927    0.3541 C   0  0  0  0  0  0  0  0  0  0  0  0
    5.3141    1.0831   -0.2961 C   0  0  0  0  0  0  0  0  0  0  0  0
   -4.9415    0.3134    0.0598 C   0  0  0  0  0  0  0  0  0  0  0  0
    5.4943   -1.4311   -0.2693 C   0  0  0  0  0  0  0  0  0  0  0  0
    6.0627   -0.1329   -0.6672 C   0  0  0  0  0  0  0  0  0  0  0  0
   -7.2744   -0.0097   -0.1325 C   0  0  0  0  0  0  0  0  0  0  0  0
   -8.3245   -1.0719   -0.2549 C   0  0  0  0  0  0  0  0  0  0  0  0
  1 11  1  0
  2 15  1  0
  3 12  1  0
  4 22  2  0
  5 26  1  0
  5 29  1  0
  6 28  2  0
  7 29  2  0
  8  9  1  0
  8 12  1  0
  8 13  1  0
  8 19  1  0
  9 10  1  0
  9 14  1  0
 10 11  1  0
 10 18  1  0
 11 15  1  0
 11 16  1  0
 12 17  1  0
 12 22  1  0
 13 15  1  0
 14 17  1  0
 16 21  1  0
 16 23  1  0
 16 24  1  0
 18 20  1  0
 20 21  1  0
 21 25  2  0
 22 26  1  0
 24 27  2  0
 25 28  1  0
 27 28  1  0
 29 30  1  0
M  END
>  <PUBCHEM_COMPOUND_CID>  (1) 
6605

>  <PUBCHEM_CONFORMER_RMSD>  (1) 
0.8

>  <PUBCHEM_CONFORMER_DIVERSEORDER>  (1) 
1
210
116
142
329
121
333
207
363
276
215
256
49
183
96
289
84
94
231
312
18
258
199
99
328
178
282
38
75
212
140
272
235
237
340
336
294
223
58
191
33
55
29
274
181
230
119
13
72
70
278
323
338
351
197
337
316
34
246
109
11
211
53
287
66
220
341
346
288
161
284
90
59
327
63
73
179
89
48
271
300
182
25
104
187
332
37
107
257
360
67
144
343
303
221
43
339
21
205
141
24
330
260
348
184
305
27
65
241
227
2
28
270
232
74
281
185
352
56
130
253
168
263
134
198
291
7
108
39
51
296
200
151
42
115
98
254
244
47
16
61
82
129
160
12
335
68
195
366
280
153
247
19
149
164
209
137
176
117
290
54
45
350
186
314
106
44
359
361
40
102
177
275
286
175
369
150
208
167
311
248
349
310
234
240
315
123
189
180
317
148
159
319
87
229
174
206
298
88
10
219
114
201
267
20
79
35
368
255
31
77
17
344
245
239
95
236
46
36
285
14
52
122
145
50
320
83
127
138
193
218
326
103
156
69
214
307
249
155
173
57
353
81
111
345
64
304
163
86
32
301
342
172
242
313
196
126
269
357
318
100
139
9
265
322
62
283
8
213
169
93
356
292
23
71
334
152
105
5
225
162
226
143
358
91
295
78
250
325
279
228
354
136
4
259
124
364
190
41
367
264
3
233
97
85
297
347
306
132
261
268
277
92
166
224
171
15
76
262
355
118
217
26
135
194
110
154
146
113
273
252
165
120
80
133
243
188
30
238
125
157
128
302
266
308
216
6
158
112
362
299
222
202
324
101
251
60
192
293
131
170
321
147
204
22
331
309
203
365

>  <PUBCHEM_MMFF94_PARTIAL_CHARGES>  (1) 
25
1 -0.29
11 0.29
12 0.34
15 0.29
16 0.28
2 -0.29
20 0.14
21 -0.28
22 0.45
24 -0.29
25 -0.14
26 0.34
27 -0.14
28 0.54
29 0.66
3 -0.68
30 0.06
4 -0.57
5 -0.43
50 0.15
51 0.4
52 0.15
55 0.15
6 -0.57
7 -0.57

>  <PUBCHEM_EFFECTIVE_ROTOR_COUNT>  (1) 
5.4

>  <PUBCHEM_PHARMACOPHORE_FEATURES>  (1) 
9
1 3 acceptor
1 3 donor
1 4 acceptor
1 6 acceptor
1 7 acceptor
5 8 9 12 14 17 rings
6 10 11 16 18 20 21 rings
6 16 21 24 25 27 28 rings
6 8 9 10 11 13 15 rings

>  <PUBCHEM_HEAVY_ATOM_COUNT>  (1) 
30

>  <PUBCHEM_ATOM_DEF_STEREO_COUNT>  (1) 
2

>  <PUBCHEM_ATOM_UDEF_STEREO_COUNT>  (1) 
5

>  <PUBCHEM_BOND_DEF_STEREO_COUNT>  (1) 
0

>  <PUBCHEM_BOND_UDEF_STEREO_COUNT>  (1) 
0

>  <PUBCHEM_ISOTOPIC_ATOM_COUNT>  (1) 
0

>  <PUBCHEM_COMPONENT_COUNT>  (1) 
1

>  <PUBCHEM_CACTVS_TAUTO_COUNT>  (1) 
6

>  <PUBCHEM_CONFORMER_ID>  (1) 
000019CD00000001

>  <PUBCHEM_MMFF94_ENERGY>  (1) 
101.6897

>  <PUBCHEM_FEATURE_SELFOVERLAP>  (1) 
45.766

>  <PUBCHEM_SHAPE_FINGERPRINT>  (1) 
10050765 1 18122063096581025805
10165383 225 16588025728192477458
10411042 1 17979354162751464394
10906281 52 18187943771712034265
11578080 2 16952520291502555535
11963148 33 18335976536930401451
12011746 2 18335707148106374376
12107698 1 18342176652506527196
12166972 35 17822010899840235293
12236239 1 17846778529454253865
12403259 415 18187072962471125780
12788726 201 18334292024875583609
13140716 1 18267011937561382074
13224815 77 18186518787510052936
13383665 225 17823433595067364709
13533116 47 17458897150386153290
15131766 46 15336836560620440296
15183329 4 18409726254141136257
15439362 3 18121220041783547444
15461852 350 17131823267580221237
15788980 27 12319731471511058718
15849732 13 18131349726703483085
16728300 4 17535438480424300538
17349148 13 18113334185120802666
17492 89 18122339077952414083
18681886 176 18410009966395128280
20028762 73 18202562878046613950
20771845 171 17968104092956716766
21033648 29 18261666086610804640
21267235 1 18341615905818347349
221357 26 18411700972239251976
23522609 53 18196402301427218128
23559900 14 18334575784405344296
255183 451 17913778215270617630
3004659 81 18259702311430079745
335352 9 18410857684931848959
350125 39 18409449167692801477
4073 2 17969224602257129323
4093350 32 17275386534387387180
4325135 7 17749109993363221487
4340502 62 14692573225641792453
5104073 3 18339914922976439224
59755656 215 18334296452717612371

>  <PUBCHEM_SHAPE_MULTIPOLES>  (1) 
591.78
17.13
2.27
1.24
26.31
0.13
0.19
1.96
-2.81
-1.26
0.03
-0.98
0.13
0.23

>  <PUBCHEM_SHAPE_SELFOVERLAP>  (1) 
1250.516

>  <PUBCHEM_SHAPE_VOLUME>  (1) 
330.6

>  <PUBCHEM_COORDINATE_TYPE>  (1) 
2
5
10

$$$$
