6635
     RDKit          3D

 18 19  0  0  0  0  0  0  0  0999 V2000
   -6.2494    0.5882    0.9470 Cl  0  0  0  0  0  0  0  0  0  0  0  0
    6.4284    0.1683    0.2763 Cl  0  0  0  0  0  0  0  0  0  0  0  0
   -0.3563   -0.5194   -0.8388 S   0  0  0  0  0  0  0  0  0  0  0  0
    0.5570    0.1970    0.3186 O   0  0  0  0  0  0  0  0  0  0  0  0
   -0.1886   -1.9576   -0.7572 O   0  0  0  0  0  0  0  0  0  0  0  0
   -0.1571    0.2034   -2.0812 O   0  0  0  0  0  0  0  0  0  0  0  0
   -2.0213   -0.2074   -0.3360 C   0  0  0  0  0  0  0  0  0  0  0  0
   -2.6582    0.9389   -0.7795 C   0  0  0  0  0  0  0  0  0  0  0  0
   -2.6582   -1.1144    0.4938 C   0  0  0  0  0  0  0  0  0  0  0  0
    1.9179    0.1904    0.3086 C   0  0  0  0  0  0  0  0  0  0  0  0
   -3.9719    1.1859   -0.3811 C   0  0  0  0  0  0  0  0  0  0  0  0
   -3.9720   -0.8675    0.8921 C   0  0  0  0  0  0  0  0  0  0  0  0
    2.6097   -1.0203    0.3409 C   0  0  0  0  0  0  0  0  0  0  0  0
    2.6210    1.3944    0.2663 C   0  0  0  0  0  0  0  0  0  0  0  0
   -4.6290    0.2826    0.4545 C   0  0  0  0  0  0  0  0  0  0  0  0
    4.0045   -1.0272    0.3309 C   0  0  0  0  0  0  0  0  0  0  0  0
    4.0159    1.3877    0.2563 C   0  0  0  0  0  0  0  0  0  0  0  0
    4.7076    0.1769    0.2885 C   0  0  0  0  0  0  0  0  0  0  0  0
  1 15  1  0
  2 18  1  0
  3  4  1  0
  3  5  2  0
  3  6  2  0
  3  7  1  0
  4 10  1  0
  7  8  2  0
  7  9  1  0
  8 11  1  0
  9 12  2  0
 10 13  2  0
 10 14  1  0
 11 15  2  0
 12 15  1  0
 13 16  1  0
 14 17  2  0
 16 18  2  0
 17 18  1  0
M  END
>  <PUBCHEM_COMPOUND_CID>  (1) 
6635

>  <PUBCHEM_CONFORMER_RMSD>  (1) 
0.6

>  <PUBCHEM_CONFORMER_DIVERSEORDER>  (1) 
1
3
2
4

>  <PUBCHEM_MMFF94_PARTIAL_CHARGES>  (1) 
26
1 -0.18
10 0.08
11 -0.15
12 -0.15
13 -0.15
14 -0.15
15 0.18
16 -0.15
17 -0.15
18 0.18
19 0.15
2 -0.18
20 0.15
21 0.15
22 0.15
23 0.15
24 0.15
25 0.15
26 0.15
3 1.49
4 -0.27
5 -0.65
6 -0.65
7 -0.01
8 -0.15
9 -0.15

>  <PUBCHEM_EFFECTIVE_ROTOR_COUNT>  (1) 
3

>  <PUBCHEM_PHARMACOPHORE_FEATURES>  (1) 
4
1 5 acceptor
1 6 acceptor
6 10 13 14 16 17 18 rings
6 7 8 9 11 12 15 rings

>  <PUBCHEM_HEAVY_ATOM_COUNT>  (1) 
18

>  <PUBCHEM_ATOM_DEF_STEREO_COUNT>  (1) 
0

>  <PUBCHEM_ATOM_UDEF_STEREO_COUNT>  (1) 
0

>  <PUBCHEM_BOND_DEF_STEREO_COUNT>  (1) 
0

>  <PUBCHEM_BOND_UDEF_STEREO_COUNT>  (1) 
0

>  <PUBCHEM_ISOTOPIC_ATOM_COUNT>  (1) 
0

>  <PUBCHEM_COMPONENT_COUNT>  (1) 
1

>  <PUBCHEM_CACTVS_TAUTO_COUNT>  (1) 
1

>  <PUBCHEM_CONFORMER_ID>  (1) 
000019EB00000001

>  <PUBCHEM_MMFF94_ENERGY>  (1) 
37.4717

>  <PUBCHEM_FEATURE_SELFOVERLAP>  (1) 
20.314

>  <PUBCHEM_SHAPE_FINGERPRINT>  (1) 
10354089 29 18411700985071153088
10447042 23 8286204929161186480
11045977 3 18187365467145177697
11089746 13 16917060079903538264
12107183 9 17686896120770394369
12236239 1 17561361794725467298
12251169 10 18040718082373499021
12507557 5 18060420244026978481
12507560 40 18260264114500424677
12516196 113 12757151289979141815
128620 24 13479129082188331778
13288520 33 14706929549519265329
13533116 47 13398361131766441252
1420 363 12901545728718716424
14251764 18 18410572902867308403
14341114 176 18261116252901845233
15183329 4 14333418830892632636
15527383 91 18187364341927075412
1813 80 15213304084134862558
18186145 218 12823299004664907463
18222031 100 14490192717180946006
187816 3 12103846769374479334
204376 136 18060420214136572911
21033648 29 18188191153349775045
21267235 1 18410297978496289928
22224240 67 18260546736323379707
22854114 59 18409166610479011419
23035841 295 15140679180936044864
23402539 116 13973964303048275640
23559900 14 18260263070528154592
23622692 88 17240205447974715647
347723 3 16056882420414831682
351380 3 14129060326630448673
3545911 37 18408604759926493672
42 15 18187083957481472858
4214541 1 18334574650692077745
4325135 7 15430043171367766494
5104073 3 18267574874977866714
542803 24 17561362880930258584
5924683 9 18337953523508967779
59755656 520 16988839475940374239
77779 3 18333730225735487520
8272917 22 18059298660367453118

>  <PUBCHEM_SHAPE_MULTIPOLES>  (1) 
360.41
13.8
1.41
1.07
1.88
0.12
0.36
-2.66
-4.64
0.14
0.03
-0.63
0
0.28

>  <PUBCHEM_SHAPE_SELFOVERLAP>  (1) 
741.211

>  <PUBCHEM_SHAPE_VOLUME>  (1) 
208.9

>  <PUBCHEM_COORDINATE_TYPE>  (1) 
2
5
10

$$$$
