6641
     RDKit          3D

 20 21  0  0  0  0  0  0  0  0999 V2000
    0.0403    1.2802    0.7208 O   0  0  0  0  0  0  0  0  0  0  0  0
   -0.0887    1.2791   -0.7248 O   0  0  0  0  0  0  0  0  0  0  0  0
    1.4678    1.2812    0.9534 C   0  0  0  0  0  0  0  0  0  0  0  0
   -1.4884    1.2781   -0.9662 C   0  0  0  0  0  0  0  0  0  0  0  0
    2.0956    0.0711    0.3486 C   0  0  0  0  0  0  0  0  0  0  0  0
   -2.1039    0.0297   -0.3401 C   0  0  0  0  0  0  0  0  0  0  0  0
    1.9615    2.6314    0.3736 C   0  0  0  0  0  0  0  0  0  0  0  0
    1.6678    1.2946    2.4857 C   0  0  0  0  0  0  0  0  0  0  0  0
   -2.0226    2.5921   -0.3772 C   0  0  0  0  0  0  0  0  0  0  0  0
   -1.7058    1.2519   -2.4838 C   0  0  0  0  0  0  0  0  0  0  0  0
    3.0494    0.2104   -0.6598 C   0  0  0  0  0  0  0  0  0  0  0  0
   -3.0442    0.1824    0.6554 C   0  0  0  0  0  0  0  0  0  0  0  0
    1.7295   -1.2001    0.7915 C   0  0  0  0  0  0  0  0  0  0  0  0
   -1.6986   -1.2072   -0.7922 C   0  0  0  0  0  0  0  0  0  0  0  0
    3.6369   -0.9213   -1.2253 C   0  0  0  0  0  0  0  0  0  0  0  0
   -3.6070   -0.9584    1.2275 C   0  0  0  0  0  0  0  0  0  0  0  0
    2.3171   -2.3317    0.2259 C   0  0  0  0  0  0  0  0  0  0  0  0
   -2.2616   -2.3480   -0.2201 C   0  0  0  0  0  0  0  0  0  0  0  0
    3.2708   -2.1922   -0.7825 C   0  0  0  0  0  0  0  0  0  0  0  0
   -3.2158   -2.2235    0.7897 C   0  0  0  0  0  0  0  0  0  0  0  0
  1  2  1  0
  1  3  1  0
  2  4  1  0
  3  5  1  0
  3  7  1  0
  3  8  1  0
  4  6  1  0
  4  9  1  0
  4 10  1  0
  5 11  2  0
  5 13  1  0
  6 12  2  0
  6 14  1  0
 11 15  1  0
 12 16  1  0
 13 17  2  0
 14 18  2  0
 15 19  2  0
 16 20  2  0
 17 19  1  0
 18 20  1  0
M  END
>  <PUBCHEM_COMPOUND_CID>  (1) 
6641

>  <PUBCHEM_CONFORMER_RMSD>  (1) 
0.8

>  <PUBCHEM_CONFORMER_DIVERSEORDER>  (1) 
1
7
6
4
9
8
3
2
5

>  <PUBCHEM_MMFF94_PARTIAL_CHARGES>  (1) 
26
1 -0.28
11 -0.15
12 -0.15
13 -0.15
14 -0.15
15 -0.15
16 -0.15
17 -0.15
18 -0.15
19 -0.15
2 -0.28
20 -0.15
3 0.42
33 0.15
34 0.15
35 0.15
36 0.15
37 0.15
38 0.15
39 0.15
4 0.42
40 0.15
41 0.15
42 0.15
5 -0.14
6 -0.14

>  <PUBCHEM_EFFECTIVE_ROTOR_COUNT>  (1) 
5

>  <PUBCHEM_PHARMACOPHORE_FEATURES>  (1) 
4
3 3 7 8 hydrophobe
3 4 9 10 hydrophobe
6 5 11 13 15 17 19 rings
6 6 12 14 16 18 20 rings

>  <PUBCHEM_HEAVY_ATOM_COUNT>  (1) 
20

>  <PUBCHEM_ATOM_DEF_STEREO_COUNT>  (1) 
0

>  <PUBCHEM_ATOM_UDEF_STEREO_COUNT>  (1) 
0

>  <PUBCHEM_BOND_DEF_STEREO_COUNT>  (1) 
0

>  <PUBCHEM_BOND_UDEF_STEREO_COUNT>  (1) 
0

>  <PUBCHEM_ISOTOPIC_ATOM_COUNT>  (1) 
0

>  <PUBCHEM_COMPONENT_COUNT>  (1) 
1

>  <PUBCHEM_CACTVS_TAUTO_COUNT>  (1) 
1

>  <PUBCHEM_CONFORMER_ID>  (1) 
000019F100000001

>  <PUBCHEM_MMFF94_ENERGY>  (1) 
68.174

>  <PUBCHEM_FEATURE_SELFOVERLAP>  (1) 
20.297

>  <PUBCHEM_SHAPE_FINGERPRINT>  (1) 
10064457 181 17696204972695262434
11322862 65 18189046504723505429
12011746 2 18339085870071394895
12054548 360 18408610240557944934
121448 382 16009041608976319528
12173636 292 17974566896948684581
12202030 40 18410562994330218625
12403259 327 17559696077712235619
12506688 2 18271813397613305826
12553582 1 18410856559661271842
12633257 1 17774181032083725387
12714826 92 18336835177800310598
12778500 126 17771101364628966427
128993 33 18114178584133528687
13533116 47 17916309514644627363
13583140 156 17273975942509642873
14223421 5 18340201985420231781
14251745 187 18263651821547766290
14386348 128 18410572889940305762
14863182 85 17615700964808405463
15664445 248 17313949761115552509
16752209 62 17823399540698461029
16945 1 18410562994335629793
17357779 13 18262504996750298279
17804303 29 18340781364061501127
17980427 23 13841079548398502972
1813 80 17458914854800204061
18981168 100 18338495504687575754
19049666 15 18270386205370886208
20645476 183 17609492731183849255
20691752 17 17969216909770423667
21285901 2 17827604206339049743
22721475 48 18410854364916951458
22907989 373 17895473618668020869
23557571 272 17895744205507197741
23559900 14 18409724092891975597
238 59 18126533826396724695
25222932 49 16521583545489716147
2748010 2 18338779183003647388
3323516 105 18269005326731334668
35225 105 13884554023159168223
598444 67 18266460906395252079
6049 1 18410568487593390208
6287921 2 17978523253280539798
81228 2 18041823078896473893
9981440 41 17123048137027828201

>  <PUBCHEM_SHAPE_MULTIPOLES>  (1) 
399.85
6.22
3.07
1.74
0.14
0.03
0
3.15
0.04
-0.01
-0.03
-0.01
-0.68
1.62

>  <PUBCHEM_SHAPE_SELFOVERLAP>  (1) 
844.372

>  <PUBCHEM_SHAPE_VOLUME>  (1) 
226.8

>  <PUBCHEM_COORDINATE_TYPE>  (1) 
2
5
10

$$$$
