6650
     RDKit          3D

 12 12  0  0  0  0  0  0  0  0999 V2000
   -2.3211    0.0015    1.4756 N   0  0  0  0  0  0  0  0  0  0  0  0
    2.2213   -0.0235    1.4729 N   0  0  0  0  0  0  0  0  0  0  0  0
    0.7491   -0.0006   -0.4832 C   0  0  0  0  0  0  0  0  0  0  0  0
   -2.2100    0.0000    0.0097 C   0  0  0  0  0  0  0  0  0  0  0  0
    0.0193   -1.2649   -0.0120 C   0  0  0  0  0  0  0  0  0  0  0  0
    0.0193    1.2647   -0.0147 C   0  0  0  0  0  0  0  0  0  0  0  0
   -1.4496   -1.2628   -0.4430 C   0  0  0  0  0  0  0  0  0  0  0  0
   -1.4497    1.2618   -0.4456 C   0  0  0  0  0  0  0  0  0  0  0  0
    2.1968    0.0000    0.0048 C   0  0  0  0  0  0  0  0  0  0  0  0
   -3.6266   -0.0005   -0.5824 C   0  0  0  0  0  0  0  0  0  0  0  0
    2.9182    1.2677   -0.4712 C   0  0  0  0  0  0  0  0  0  0  0  0
    2.9328   -1.2435   -0.5110 C   0  0  0  0  0  0  0  0  0  0  0  0
  1  4  1  0
  2  9  1  0
  3  5  1  0
  3  6  1  0
  3  9  1  0
  4  7  1  0
  4  8  1  0
  4 10  1  0
  5  7  1  0
  6  8  1  0
  9 11  1  0
  9 12  1  0
M  END
>  <PUBCHEM_COMPOUND_CID>  (1) 
6650

>  <PUBCHEM_CONFORMER_RMSD>  (1) 
0.6

>  <PUBCHEM_CONFORMER_DIVERSEORDER>  (1) 
2
1
3

>  <PUBCHEM_MMFF94_PARTIAL_CHARGES>  (1) 
8
1 -0.99
2 -0.99
31 0.36
32 0.36
33 0.36
34 0.36
4 0.27
9 0.27

>  <PUBCHEM_EFFECTIVE_ROTOR_COUNT>  (1) 
2.2

>  <PUBCHEM_PHARMACOPHORE_FEATURES>  (1) 
6
1 1 cation
1 1 donor
1 2 cation
1 2 donor
3 9 11 12 hydrophobe
6 3 4 5 6 7 8 rings

>  <PUBCHEM_HEAVY_ATOM_COUNT>  (1) 
12

>  <PUBCHEM_ATOM_DEF_STEREO_COUNT>  (1) 
0

>  <PUBCHEM_ATOM_UDEF_STEREO_COUNT>  (1) 
0

>  <PUBCHEM_BOND_DEF_STEREO_COUNT>  (1) 
0

>  <PUBCHEM_BOND_UDEF_STEREO_COUNT>  (1) 
0

>  <PUBCHEM_ISOTOPIC_ATOM_COUNT>  (1) 
0

>  <PUBCHEM_COMPONENT_COUNT>  (1) 
1

>  <PUBCHEM_CACTVS_TAUTO_COUNT>  (1) 
1

>  <PUBCHEM_CONFORMER_ID>  (1) 
000019FA00000002

>  <PUBCHEM_MMFF94_ENERGY>  (1) 
15.1987

>  <PUBCHEM_FEATURE_SELFOVERLAP>  (1) 
30.446

>  <PUBCHEM_SHAPE_FINGERPRINT>  (1) 
10219947 1 18410860962223919709
10857977 72 18409726279056254665
11062470 55 17603581937288411669
12032990 46 18409736157687030191
12491281 212 17274840037920654339
12524768 44 18408888472660176420
12932764 1 17095240306601850399
13296908 3 17967820461098528707
14144814 61 18413392050638669437
14325111 11 18411138030442988861
14993402 34 18341332279310792125
15310529 11 16950276312840087877
15775835 57 18413109484766613429
16945 1 18410013229942155455
17844478 74 18114478806790134017
20201158 50 18413389813134944134
20711983 171 16630259025585933361
20715346 28 18041288741397642543
21028194 46 17917426497428671527
23235685 24 18341893008534045093
23402539 116 16271917182672391565
23419403 2 15685540128007795285
23552423 10 18335138678830178302
2748010 2 18122623847073367941
29004967 10 15791726425532917036
3248919 1 17632300064135036798
3286 77 17203600459000932686
369184 2 18343579642359878823
5084963 1 18201436939378849094
528886 8 18411980303552261902
57812782 119 17417805123832903367
63268167 104 18341334473880824561
7364860 26 18342175588061207788
8030462 33 17313103012491834332

>  <PUBCHEM_SHAPE_MULTIPOLES>  (1) 
236.99
5.17
1.43
1.01
0.43
0.01
-0.37
0
0.31
-0.4
0.23
0.03
-0.01
0

>  <PUBCHEM_SHAPE_SELFOVERLAP>  (1) 
465.195

>  <PUBCHEM_SHAPE_VOLUME>  (1) 
141.8

>  <PUBCHEM_COORDINATE_TYPE>  (1) 
2
5
10

$$$$
