6654
     RDKit          3D

 10 11  0  0  1  0  0  0  0  0999 V2000
   -1.1133   -0.3452    0.2340 C   0  0  0  0  0  0  0  0  0  0  0  0
   -0.8716    1.1256   -0.2359 C   0  0  0  0  0  0  0  0  0  0  0  0
    0.0976   -0.6847   -0.7010 C   0  0  0  0  0  0  0  0  0  0  0  0
   -0.4540    0.4778   -1.5955 C   0  0  0  0  0  0  0  0  0  0  0  0
    0.3013    1.8049    0.4928 C   0  0  0  0  0  0  0  0  0  0  0  0
    1.4176   -0.3422   -0.0714 C   0  0  0  0  0  0  0  0  0  0  0  0
   -2.4385   -0.9385   -0.2213 C   0  0  0  0  0  0  0  0  0  0  0  0
   -0.9573   -0.6351    1.7134 C   0  0  0  0  0  0  0  0  0  0  0  0
    1.4909    0.8735    0.5021 C   0  0  0  0  0  0  0  0  0  0  0  0
    2.5274   -1.3362   -0.1172 C   0  0  0  0  0  0  0  0  0  0  0  0
  1  2  1  0
  1  3  1  0
  1  7  1  0
  1  8  1  0
  2  4  1  0
  2  5  1  0
  3  4  1  0
  3  6  1  0
  5  9  1  0
  6  9  2  0
  6 10  1  0
M  END
>  <PUBCHEM_COMPOUND_CID>  (1) 
6654

>  <PUBCHEM_CONFORMER_RMSD>  (1) 
0.4

>  <PUBCHEM_CONFORMER_DIVERSEORDER>  (1) 
1
2

>  <PUBCHEM_MMFF94_PARTIAL_CHARGES>  (1) 
6
10 0.14
23 0.15
3 0.12
5 0.14
6 -0.25
9 -0.29

>  <PUBCHEM_EFFECTIVE_ROTOR_COUNT>  (1) 
0.6

>  <PUBCHEM_PHARMACOPHORE_FEATURES>  (1) 
2
3 1 7 8 hydrophobe
7 1 2 3 4 5 6 9 rings

>  <PUBCHEM_HEAVY_ATOM_COUNT>  (1) 
10

>  <PUBCHEM_ATOM_DEF_STEREO_COUNT>  (1) 
0

>  <PUBCHEM_ATOM_UDEF_STEREO_COUNT>  (1) 
2

>  <PUBCHEM_BOND_DEF_STEREO_COUNT>  (1) 
0

>  <PUBCHEM_BOND_UDEF_STEREO_COUNT>  (1) 
0

>  <PUBCHEM_ISOTOPIC_ATOM_COUNT>  (1) 
0

>  <PUBCHEM_COMPONENT_COUNT>  (1) 
1

>  <PUBCHEM_CACTVS_TAUTO_COUNT>  (1) 
1

>  <PUBCHEM_CONFORMER_ID>  (1) 
000019FE00000001

>  <PUBCHEM_MMFF94_ENERGY>  (1) 
33.1255

>  <PUBCHEM_FEATURE_SELFOVERLAP>  (1) 
10.148

>  <PUBCHEM_SHAPE_FINGERPRINT>  (1) 
12423570 1 15401686739989697053
13024252 1 17752218192591969182
137420 1 11046687646779861365
16945 1 18125995211859591141
21040471 1 17116064245072923020
21922407 69 17416427534526559507
29004967 10 18339916138150996161
369184 2 18128526060188818994
5084963 1 17822566093150895070
68250623 7 18413390921220721021

>  <PUBCHEM_SHAPE_MULTIPOLES>  (1) 
205.8
2.6
1.55
1.28
0.48
0.42
0.09
-1.28
0.03
0.3
0.13
-0.37
-0.03
0.26

>  <PUBCHEM_SHAPE_SELFOVERLAP>  (1) 
431.097

>  <PUBCHEM_SHAPE_VOLUME>  (1) 
119.2

>  <PUBCHEM_COORDINATE_TYPE>  (1) 
2
5
10

$$$$
