6661
     RDKit          3D

  8  8  0  0  0  0  0  0  0  0999 V2000
    0.0002    1.9453    0.0001 O   0  0  0  0  0  0  0  0  0  0  0  0
    1.1261   -0.1212    0.0124 N   0  0  0  0  0  0  0  0  0  0  0  0
   -1.1261   -0.1210   -0.0112 N   0  0  0  0  0  0  0  0  0  0  0  0
    0.7599   -1.5213   -0.0389 C   0  0  0  0  0  0  0  0  0  0  0  0
   -0.7602   -1.5213    0.0388 C   0  0  0  0  0  0  0  0  0  0  0  0
    0.0000    0.7208    0.0008 C   0  0  0  0  0  0  0  0  0  0  0  0
    2.5070    0.3093    0.0055 C   0  0  0  0  0  0  0  0  0  0  0  0
   -2.5070    0.3095   -0.0075 C   0  0  0  0  0  0  0  0  0  0  0  0
  1  6  2  0
  2  4  1  0
  2  6  1  0
  2  7  1  0
  3  5  1  0
  3  6  1  0
  3  8  1  0
  4  5  1  0
M  END
>  <PUBCHEM_COMPOUND_CID>  (1) 
6661

>  <PUBCHEM_CONFORMER_RMSD>  (1) 
0.4

>  <PUBCHEM_CONFORMER_DIVERSEORDER>  (1) 
1

>  <PUBCHEM_MMFF94_PARTIAL_CHARGES>  (1) 
8
1 -0.57
2 -0.66
3 -0.66
4 0.3
5 0.3
6 0.69
7 0.3
8 0.3

>  <PUBCHEM_EFFECTIVE_ROTOR_COUNT>  (1) 
0.8

>  <PUBCHEM_PHARMACOPHORE_FEATURES>  (1) 
2
1 1 acceptor
5 2 3 4 5 6 rings

>  <PUBCHEM_HEAVY_ATOM_COUNT>  (1) 
8

>  <PUBCHEM_ATOM_DEF_STEREO_COUNT>  (1) 
0

>  <PUBCHEM_ATOM_UDEF_STEREO_COUNT>  (1) 
0

>  <PUBCHEM_BOND_DEF_STEREO_COUNT>  (1) 
0

>  <PUBCHEM_BOND_UDEF_STEREO_COUNT>  (1) 
0

>  <PUBCHEM_ISOTOPIC_ATOM_COUNT>  (1) 
0

>  <PUBCHEM_COMPONENT_COUNT>  (1) 
1

>  <PUBCHEM_CACTVS_TAUTO_COUNT>  (1) 
1

>  <PUBCHEM_CONFORMER_ID>  (1) 
00001A0500000001

>  <PUBCHEM_MMFF94_ENERGY>  (1) 
13.9678

>  <PUBCHEM_FEATURE_SELFOVERLAP>  (1) 
10.148

>  <PUBCHEM_SHAPE_FINGERPRINT>  (1) 
16714656 1 18410858771806409924
18185500 45 18411134753293316519
20096714 4 18338517559460782699
21040471 1 18410573993752058662
23552423 10 18046071449538313494
29004967 10 18334304140808954953

>  <PUBCHEM_SHAPE_MULTIPOLES>  (1) 
148.8
2.75
1.69
0.58
0
0.03
0
-0.39
0
0
0
0
0.02
0.01

>  <PUBCHEM_SHAPE_SELFOVERLAP>  (1) 
289.835

>  <PUBCHEM_SHAPE_VOLUME>  (1) 
93.4

>  <PUBCHEM_COORDINATE_TYPE>  (1) 
2
5
10

$$$$
