6669
     RDKit          3D

 21 21  0  0  0  0  0  0  0  0999 V2000
   -1.2385    2.9655    1.0912 O   0  0  0  0  0  0  0  0  0  0  0  0
   -1.2127   -2.9654   -1.1024 O   0  0  0  0  0  0  0  0  0  0  0  0
   -1.2100    2.9610   -1.1038 O   0  0  0  0  0  0  0  0  0  0  0  0
   -1.2420   -2.9673    1.0927 O   0  0  0  0  0  0  0  0  0  0  0  0
    3.9714   -0.0032    1.1270 O   0  0  0  0  0  0  0  0  0  0  0  0
   -0.9238    2.4411   -0.0013 N   0  0  0  0  0  0  0  0  0  0  0  0
   -0.9261   -2.4444   -0.0004 N   0  0  0  0  0  0  0  0  0  0  0  0
   -2.4477   -0.0004   -0.0195 C   0  0  0  0  0  0  0  0  0  0  0  0
   -0.9102   -0.0018    0.0012 C   0  0  0  0  0  0  0  0  0  0  0  0
   -0.2122    1.2059    0.0105 C   0  0  0  0  0  0  0  0  0  0  0  0
   -0.2135   -1.2100    0.0102 C   0  0  0  0  0  0  0  0  0  0  0  0
   -2.9495    0.7270   -1.2857 C   0  0  0  0  0  0  0  0  0  0  0  0
   -2.9837    0.7293    1.2312 C   0  0  0  0  0  0  0  0  0  0  0  0
   -3.0741   -1.4133   -0.0266 C   0  0  0  0  0  0  0  0  0  0  0  0
    1.1826    1.2053    0.0289 C   0  0  0  0  0  0  0  0  0  0  0  0
    1.1814   -1.2107    0.0286 C   0  0  0  0  0  0  0  0  0  0  0  0
    1.8793   -0.0031    0.0380 C   0  0  0  0  0  0  0  0  0  0  0  0
    1.9373    2.4999    0.0393 C   0  0  0  0  0  0  0  0  0  0  0  0
    1.9345   -2.5062    0.0377 C   0  0  0  0  0  0  0  0  0  0  0  0
    3.3394   -0.0041    0.0554 C   0  0  0  0  0  0  0  0  0  0  0  0
    4.1179   -0.0053   -1.2524 C   0  0  0  0  0  0  0  0  0  0  0  0
  1  6  1  0
  2  7  1  0
  3  6  2  0
  4  7  2  0
  5 20  2  0
  6 10  1  0
  7 11  1  0
  8  9  1  0
  8 12  1  0
  8 13  1  0
  8 14  1  0
  9 10  2  0
  9 11  1  0
 10 15  1  0
 11 16  2  0
 15 17  2  0
 15 18  1  0
 16 17  1  0
 16 19  1  0
 17 20  1  0
 20 21  1  0
M  CHG  4   1  -1   2  -1   6   1   7   1
M  END
>  <PUBCHEM_COMPOUND_CID>  (1) 
6669

>  <PUBCHEM_CONFORMER_RMSD>  (1) 
0.6

>  <PUBCHEM_CONFORMER_DIVERSEORDER>  (1) 
1
2

>  <PUBCHEM_MMFF94_PARTIAL_CHARGES>  (1) 
18
1 -0.52
10 0.13
11 0.13
15 -0.14
16 -0.14
17 0.09
18 0.14
19 0.14
2 -0.52
20 0.42
21 0.06
3 -0.52
4 -0.52
5 -0.57
6 0.91
7 0.91
8 0.14
9 -0.14

>  <PUBCHEM_EFFECTIVE_ROTOR_COUNT>  (1) 
4

>  <PUBCHEM_PHARMACOPHORE_FEATURES>  (1) 
9
1 1 acceptor
1 1 anion
1 2 acceptor
1 2 anion
1 3 acceptor
1 4 acceptor
1 5 acceptor
4 8 12 13 14 hydrophobe
6 9 10 11 15 16 17 rings

>  <PUBCHEM_HEAVY_ATOM_COUNT>  (1) 
21

>  <PUBCHEM_ATOM_DEF_STEREO_COUNT>  (1) 
0

>  <PUBCHEM_ATOM_UDEF_STEREO_COUNT>  (1) 
0

>  <PUBCHEM_BOND_DEF_STEREO_COUNT>  (1) 
0

>  <PUBCHEM_BOND_UDEF_STEREO_COUNT>  (1) 
0

>  <PUBCHEM_ISOTOPIC_ATOM_COUNT>  (1) 
0

>  <PUBCHEM_COMPONENT_COUNT>  (1) 
1

>  <PUBCHEM_CACTVS_TAUTO_COUNT>  (1) 
2

>  <PUBCHEM_CONFORMER_ID>  (1) 
00001A0D00000001

>  <PUBCHEM_MMFF94_ENERGY>  (1) 
135.2598

>  <PUBCHEM_FEATURE_SELFOVERLAP>  (1) 
45.836

>  <PUBCHEM_SHAPE_FINGERPRINT>  (1) 
10967382 1 18338516339584484658
11132069 177 18342454846286083096
11578080 2 17316161944531136412
12403814 3 17603583045147251205
12553582 1 18410015442098304104
13027679 85 18267306611035812101
13140716 1 18266458891902512328
13221675 6 18410294709535781550
13538477 17 18187081784871657754
13583140 156 16877660167074851088
14178342 30 18125433108131317872
14614273 12 18044934563237178685
14790565 3 18266481874162762860
15309172 13 18339084791491252145
16752209 62 18263913376276195212
16945 1 18410855451807324008
193761 8 17834394518946508011
19591789 44 18338244889067224319
19868273 325 18265617765364968438
20028762 73 18057612173351833383
20510252 161 18343299232667323016
20739085 24 17905918897100486064
21160774 45 18408604751463094741
21501502 16 18122905605607668526
2334 1 17978228588738857440
23402539 116 18271512174065822911
23419403 2 14730180998720433994
23493267 7 17530680983393373249
23558518 356 18120378657293862090
23559900 14 18342746239297172980
238 59 17830128551617877341
2748010 2 18123185972635726148
335352 9 18410856529838834476
589210 1 17689718979498935023
7364860 26 17477207596764913152
81228 2 18410578400694342752
8809292 202 18335140942167134514

>  <PUBCHEM_SHAPE_MULTIPOLES>  (1) 
392.86
5.44
3.5
1.06
3.34
0.13
0.07
0.04
0.28
-1.22
-0.05
-0.2
-0.12
0

>  <PUBCHEM_SHAPE_SELFOVERLAP>  (1) 
833.358

>  <PUBCHEM_SHAPE_VOLUME>  (1) 
222.5

>  <PUBCHEM_COORDINATE_TYPE>  (1) 
2
5
10

$$$$
