6672
     RDKit          3D

 11 11  0  0  0  0  0  0  0  0999 V2000
    2.2875    1.0976   -0.0003 O   0  0  0  0  0  0  0  0  0  0  0  0
    2.2876   -1.0976    0.0003 O   0  0  0  0  0  0  0  0  0  0  0  0
    1.6843    0.0000   -0.0002 N   0  0  0  0  0  0  0  0  0  0  0  0
    0.2595    0.0000    0.0001 C   0  0  0  0  0  0  0  0  0  0  0  0
   -0.4379    1.2080    0.0001 C   0  0  0  0  0  0  0  0  0  0  0  0
   -0.4379   -1.2080    0.0001 C   0  0  0  0  0  0  0  0  0  0  0  0
   -1.8328    1.2080    0.0000 C   0  0  0  0  0  0  0  0  0  0  0  0
   -1.8328   -1.2080   -0.0001 C   0  0  0  0  0  0  0  0  0  0  0  0
   -2.5303    0.0000   -0.0001 C   0  0  0  0  0  0  0  0  0  0  0  0
    0.2764    2.5213    0.0002 C   0  0  0  0  0  0  0  0  0  0  0  0
    0.2763   -2.5213   -0.0001 C   0  0  0  0  0  0  0  0  0  0  0  0
  1  3  1  0
  2  3  2  0
  3  4  1  0
  4  5  2  0
  4  6  1  0
  5  7  1  0
  5 10  1  0
  6  8  2  0
  6 11  1  0
  7  9  2  0
  8  9  1  0
M  CHG  2   1  -1   3   1
M  END
>  <PUBCHEM_COMPOUND_CID>  (1) 
6672

>  <PUBCHEM_CONFORMER_RMSD>  (1) 
0.4

>  <PUBCHEM_CONFORMER_DIVERSEORDER>  (1) 
1

>  <PUBCHEM_MMFF94_PARTIAL_CHARGES>  (1) 
14
1 -0.52
10 0.14
11 0.14
12 0.15
13 0.15
14 0.15
2 -0.52
3 0.91
4 0.13
5 -0.14
6 -0.14
7 -0.15
8 -0.15
9 -0.15

>  <PUBCHEM_EFFECTIVE_ROTOR_COUNT>  (1) 
1

>  <PUBCHEM_PHARMACOPHORE_FEATURES>  (1) 
4
1 1 acceptor
1 1 anion
1 2 acceptor
6 4 5 6 7 8 9 rings

>  <PUBCHEM_HEAVY_ATOM_COUNT>  (1) 
11

>  <PUBCHEM_ATOM_DEF_STEREO_COUNT>  (1) 
0

>  <PUBCHEM_ATOM_UDEF_STEREO_COUNT>  (1) 
0

>  <PUBCHEM_BOND_DEF_STEREO_COUNT>  (1) 
0

>  <PUBCHEM_BOND_UDEF_STEREO_COUNT>  (1) 
0

>  <PUBCHEM_ISOTOPIC_ATOM_COUNT>  (1) 
0

>  <PUBCHEM_COMPONENT_COUNT>  (1) 
1

>  <PUBCHEM_CACTVS_TAUTO_COUNT>  (1) 
1

>  <PUBCHEM_CONFORMER_ID>  (1) 
00001A1000000001

>  <PUBCHEM_MMFF94_ENERGY>  (1) 
48.6341

>  <PUBCHEM_FEATURE_SELFOVERLAP>  (1) 
20.379

>  <PUBCHEM_SHAPE_FINGERPRINT>  (1) 
12423570 1 17677624068199670717
12524768 44 18341898488912314774
16945 1 18410573989752354053
18185500 45 18411135805755365911
193761 8 17690280404675740681
21040471 1 18338516446990296070
2334 1 18410856594004802694
23552423 10 18262523589167648590
241688 4 18339079289606536529
2748010 2 18410855464428403967
5084963 1 18130504124245540330
528886 8 18411414003640316401
66348 1 18410856538180783891

>  <PUBCHEM_SHAPE_MULTIPOLES>  (1) 
209.66
2.86
2.58
0.59
0.2
0
0
0
0
0.36
0
-0.06
0
0

>  <PUBCHEM_SHAPE_SELFOVERLAP>  (1) 
441.166

>  <PUBCHEM_SHAPE_VOLUME>  (1) 
119.5

>  <PUBCHEM_COORDINATE_TYPE>  (1) 
2
5
10

$$$$
