6686
     RDKit          3D

 20 22  0  0  0  0  0  0  0  0999 V2000
    0.0004   -2.6718   -0.0008 O   0  0  0  0  0  0  0  0  0  0  0  0
   -0.0007    2.6718    0.0005 O   0  0  0  0  0  0  0  0  0  0  0  0
   -2.5598   -2.7582   -0.0004 O   0  0  0  0  0  0  0  0  0  0  0  0
    2.5601   -2.7579   -0.0006 O   0  0  0  0  0  0  0  0  0  0  0  0
   -2.5611    2.7579   -0.0012 O   0  0  0  0  0  0  0  0  0  0  0  0
    2.5604    2.7581   -0.0002 O   0  0  0  0  0  0  0  0  0  0  0  0
   -1.2729   -0.6983    0.0000 C   0  0  0  0  0  0  0  0  0  0  0  0
    1.2731   -0.6981   -0.0002 C   0  0  0  0  0  0  0  0  0  0  0  0
   -1.2730    0.6981   -0.0003 C   0  0  0  0  0  0  0  0  0  0  0  0
    1.2730    0.6984   -0.0002 C   0  0  0  0  0  0  0  0  0  0  0  0
    0.0001   -1.4475    0.0002 C   0  0  0  0  0  0  0  0  0  0  0  0
   -0.0001    1.4475   -0.0007 C   0  0  0  0  0  0  0  0  0  0  0  0
   -2.4864   -1.3966    0.0006 C   0  0  0  0  0  0  0  0  0  0  0  0
    2.4867   -1.3963    0.0001 C   0  0  0  0  0  0  0  0  0  0  0  0
   -2.4866    1.3963   -0.0001 C   0  0  0  0  0  0  0  0  0  0  0  0
    2.4865    1.3966    0.0003 C   0  0  0  0  0  0  0  0  0  0  0  0
   -3.6934   -0.6970    0.0010 C   0  0  0  0  0  0  0  0  0  0  0  0
    3.6936   -0.6965    0.0006 C   0  0  0  0  0  0  0  0  0  0  0  0
   -3.6936    0.6965    0.0007 C   0  0  0  0  0  0  0  0  0  0  0  0
    3.6936    0.6969    0.0007 C   0  0  0  0  0  0  0  0  0  0  0  0
  1 11  2  0
  2 12  2  0
  3 13  1  0
  4 14  1  0
  5 15  1  0
  6 16  1  0
  7  9  2  0
  7 11  1  0
  7 13  1  0
  8 10  2  0
  8 11  1  0
  8 14  1  0
  9 12  1  0
  9 15  1  0
 10 12  1  0
 10 16  1  0
 13 17  2  0
 14 18  2  0
 15 19  2  0
 16 20  2  0
 17 19  1  0
 18 20  1  0
M  END
>  <PUBCHEM_COMPOUND_CID>  (1) 
6686

>  <PUBCHEM_CONFORMER_RMSD>  (1) 
0.6

>  <PUBCHEM_CONFORMER_DIVERSEORDER>  (1) 
1

>  <PUBCHEM_MMFF94_PARTIAL_CHARGES>  (1) 
28
1 -0.57
10 0.09
11 0.4
12 0.4
13 0.08
14 0.08
15 0.08
16 0.08
17 -0.15
18 -0.15
19 -0.15
2 -0.57
20 -0.15
21 0.15
22 0.15
23 0.15
24 0.15
25 0.45
26 0.45
27 0.45
28 0.45
3 -0.53
4 -0.53
5 -0.53
6 -0.53
7 0.09
8 0.09
9 0.09

>  <PUBCHEM_EFFECTIVE_ROTOR_COUNT>  (1) 
0

>  <PUBCHEM_PHARMACOPHORE_FEATURES>  (1) 
9
1 1 acceptor
1 2 acceptor
1 3 donor
1 4 donor
1 5 donor
1 6 donor
6 7 8 9 10 11 12 rings
6 7 9 13 15 17 19 rings
6 8 10 14 16 18 20 rings

>  <PUBCHEM_HEAVY_ATOM_COUNT>  (1) 
20

>  <PUBCHEM_ATOM_DEF_STEREO_COUNT>  (1) 
0

>  <PUBCHEM_ATOM_UDEF_STEREO_COUNT>  (1) 
0

>  <PUBCHEM_BOND_DEF_STEREO_COUNT>  (1) 
0

>  <PUBCHEM_BOND_UDEF_STEREO_COUNT>  (1) 
0

>  <PUBCHEM_ISOTOPIC_ATOM_COUNT>  (1) 
0

>  <PUBCHEM_COMPONENT_COUNT>  (1) 
1

>  <PUBCHEM_CACTVS_TAUTO_COUNT>  (1) 
48

>  <PUBCHEM_CONFORMER_ID>  (1) 
00001A1E00000001

>  <PUBCHEM_MMFF94_ENERGY>  (1) 
66.9165

>  <PUBCHEM_FEATURE_SELFOVERLAP>  (1) 
45.714

>  <PUBCHEM_SHAPE_FINGERPRINT>  (1) 
10411042 1 15744725194760186957
10608611 8 18410572889934992037
10616163 171 18411703226548410759
10863032 1 18412262835011721577
10967382 1 18338516339595047142
1100329 8 16465301185613561106
11132069 177 18411131459069133968
11578080 2 17201902929307059587
13140716 1 18410573942201778601
13897977 150 18410571781854405341
14178342 30 18338502093610669368
14223421 5 18410575127612751879
14790565 3 17399535896915282309
15196674 1 18410575084663078917
15442244 35 18266739082583962730
15536298 74 18343019991136500098
16945 1 18410856563934756870
17492 89 18410292510323524987
18186145 218 18272660004144036040
19591789 44 18410577287981652550
20510252 161 18198627828867178097
20905425 154 18341618147838638422
21267235 1 18410583885051471171
21501502 16 18410575088958046212
221490 88 18337117859953020714
2334 1 18410855494487900167
23366157 5 18113618989272070158
23402539 116 18342166804325631902
23463225 33 18409449167592197876
23559900 14 18341608201364293696
238 59 16888316419154962541
2748010 2 18410855464423129215
335352 9 17978510827908497845
34934 24 18410847763546988234
350125 39 18410016537093704329
5104073 3 18410575119022818264
7364860 26 18413107264727366272
7832392 63 18339642235428462066
8809292 202 18334016124507674027
9709674 26 18412548703782667950

>  <PUBCHEM_SHAPE_MULTIPOLES>  (1) 
376.37
6.3
3.2
0.59
0
0
0
0
0
0
0
0
0
0

>  <PUBCHEM_SHAPE_SELFOVERLAP>  (1) 
861.93

>  <PUBCHEM_SHAPE_VOLUME>  (1) 
191.3

>  <PUBCHEM_COORDINATE_TYPE>  (1) 
2
5
10

$$$$
