6702
     RDKit          3D

 18 20  0  0  0  0  0  0  0  0999 V2000
   -0.0695    2.4790   -0.0026 O   0  0  0  0  0  0  0  0  0  0  0  0
   -0.8707   -2.8044   -0.0013 O   0  0  0  0  0  0  0  0  0  0  0  0
    2.5105    2.2078    0.0002 N   0  0  0  0  0  0  0  0  0  0  0  0
    0.9181    0.3229   -0.0004 C   0  0  0  0  0  0  0  0  0  0  0  0
    0.6976   -1.0560   -0.0006 C   0  0  0  0  0  0  0  0  0  0  0  0
   -1.5960    0.7250   -0.0002 C   0  0  0  0  0  0  0  0  0  0  0  0
   -1.8165   -0.6539    0.0000 C   0  0  0  0  0  0  0  0  0  0  0  0
    2.2267    0.8207    0.0000 C   0  0  0  0  0  0  0  0  0  0  0  0
   -0.2206    1.2639   -0.0006 C   0  0  0  0  0  0  0  0  0  0  0  0
   -0.6779   -1.5948    0.0000 C   0  0  0  0  0  0  0  0  0  0  0  0
    3.3080   -0.0610    0.0002 C   0  0  0  0  0  0  0  0  0  0  0  0
    1.7856   -1.9372   -0.0005 C   0  0  0  0  0  0  0  0  0  0  0  0
    3.0879   -1.4369   -0.0001 C   0  0  0  0  0  0  0  0  0  0  0  0
   -2.6840    1.6062    0.0003 C   0  0  0  0  0  0  0  0  0  0  0  0
   -3.1251   -1.1516    0.0007 C   0  0  0  0  0  0  0  0  0  0  0  0
    4.7188    0.4344    0.0025 C   0  0  0  0  0  0  0  0  0  0  0  0
   -3.9864    1.1059    0.0011 C   0  0  0  0  0  0  0  0  0  0  0  0
   -4.2064   -0.2701    0.0013 C   0  0  0  0  0  0  0  0  0  0  0  0
  1  9  2  0
  2 10  2  0
  3  8  1  0
  4  5  1  0
  4  8  2  0
  4  9  1  0
  5 10  1  0
  5 12  2  0
  6  7  2  0
  6  9  1  0
  6 14  1  0
  7 10  1  0
  7 15  1  0
  8 11  1  0
 11 13  2  0
 11 16  1  0
 12 13  1  0
 14 17  2  0
 15 18  2  0
 17 18  1  0
M  END
>  <PUBCHEM_COMPOUND_CID>  (1) 
6702

>  <PUBCHEM_CONFORMER_RMSD>  (1) 
0.4

>  <PUBCHEM_CONFORMER_DIVERSEORDER>  (1) 
1

>  <PUBCHEM_MMFF94_PARTIAL_CHARGES>  (1) 
26
1 -0.57
10 0.4
11 -0.14
12 -0.15
13 -0.15
14 -0.15
15 -0.15
16 0.14
17 -0.15
18 -0.15
19 0.15
2 -0.57
20 0.15
21 0.15
22 0.15
26 0.15
27 0.15
28 0.4
29 0.4
3 -0.9
4 0.09
5 0.09
6 0.09
7 0.09
8 0.1
9 0.4

>  <PUBCHEM_EFFECTIVE_ROTOR_COUNT>  (1) 
0

>  <PUBCHEM_PHARMACOPHORE_FEATURES>  (1) 
7
1 1 acceptor
1 2 acceptor
1 3 cation
1 3 donor
6 4 5 6 7 9 10 rings
6 4 5 8 11 12 13 rings
6 6 7 14 15 17 18 rings

>  <PUBCHEM_HEAVY_ATOM_COUNT>  (1) 
18

>  <PUBCHEM_ATOM_DEF_STEREO_COUNT>  (1) 
0

>  <PUBCHEM_ATOM_UDEF_STEREO_COUNT>  (1) 
0

>  <PUBCHEM_BOND_DEF_STEREO_COUNT>  (1) 
0

>  <PUBCHEM_BOND_UDEF_STEREO_COUNT>  (1) 
0

>  <PUBCHEM_ISOTOPIC_ATOM_COUNT>  (1) 
0

>  <PUBCHEM_COMPONENT_COUNT>  (1) 
1

>  <PUBCHEM_CACTVS_TAUTO_COUNT>  (1) 
4

>  <PUBCHEM_CONFORMER_ID>  (1) 
00001A2E00000001

>  <PUBCHEM_MMFF94_ENERGY>  (1) 
69.2074

>  <PUBCHEM_FEATURE_SELFOVERLAP>  (1) 
35.562

>  <PUBCHEM_SHAPE_FINGERPRINT>  (1) 
10411042 1 16753531584121752803
10608611 8 18410008836296320941
10616163 171 18339926025160950031
10967382 1 18410855447264378406
11132069 177 18412539894783164073
11471102 20 18410570652288536598
12011746 2 18411138021816001244
12403814 3 17531242859441148189
13132413 78 18411982481090352557
13140716 1 18122627429076086306
13221675 6 18410292506032935886
13380535 76 18411700988986617422
13583140 156 16877931759357947137
13862211 1 18410568475172978314
14790565 3 18410304609283093660
15196674 1 18410575046013764935
15230672 131 13218751067137963811
15309172 13 18411708677325996771
15442244 35 18194964037217135706
15536298 74 18343021051861754838
16945 1 18266458904650315687
1813 80 16879345598959143498
18186145 218 18342181007671527885
193761 8 17978229692424152679
19591789 44 18410294722236352963
200 152 18131343112369470389
20510252 161 18272089348877127649
21029758 11 18343297085215303705
21249577 43 18410012122025228775
21267235 1 18410865372986891287
21501502 16 18267019633921028782
221490 88 18336554892508519882
2334 1 18410855464702729923
23402539 116 18343292673946014494
23402655 69 18342452600144872397
23463225 33 18408885109526664693
23559900 14 18343019957246520070
2748010 2 18410294679412871399
335352 9 17978228262184219287
34934 24 18410848854537227210
474 4 17169278229115358492
5104073 3 18410293566773697498
537710 114 18410579478457074165
53812653 166 18341891891858372456
69090 78 18413103974455629823
7364860 26 18342175579123145944
8809292 202 18261395606185895323
9709674 26 18412268349824186966

>  <PUBCHEM_SHAPE_MULTIPOLES>  (1) 
353.71
7.26
2.45
0.6
0.42
0.19
0
-0.99
-0.01
0.1
0
-0.01
0.01
0

>  <PUBCHEM_SHAPE_SELFOVERLAP>  (1) 
799.574

>  <PUBCHEM_SHAPE_VOLUME>  (1) 
185.1

>  <PUBCHEM_COORDINATE_TYPE>  (1) 
2
5
10

$$$$
