6711
     RDKit          3D

 18 20  0  0  0  0  0  0  0  0999 V2000
   -3.4351   -2.2412    0.0020 Cl  0  0  0  0  0  0  0  0  0  0  0  0
    3.4344    2.2412    0.0012 Cl  0  0  0  0  0  0  0  0  0  0  0  0
   -0.6968   -2.5778   -0.0015 O   0  0  0  0  0  0  0  0  0  0  0  0
    0.6966    2.5780   -0.0009 O   0  0  0  0  0  0  0  0  0  0  0  0
   -1.4186   -0.3091   -0.0004 C   0  0  0  0  0  0  0  0  0  0  0  0
    1.4187    0.3091   -0.0003 C   0  0  0  0  0  0  0  0  0  0  0  0
   -1.0231    1.0302   -0.0005 C   0  0  0  0  0  0  0  0  0  0  0  0
    1.0232   -1.0302   -0.0005 C   0  0  0  0  0  0  0  0  0  0  0  0
   -0.4100   -1.3882   -0.0003 C   0  0  0  0  0  0  0  0  0  0  0  0
    0.4100    1.3882   -0.0006 C   0  0  0  0  0  0  0  0  0  0  0  0
   -2.7801   -0.6350    0.0000 C   0  0  0  0  0  0  0  0  0  0  0  0
    2.7803    0.6350    0.0005 C   0  0  0  0  0  0  0  0  0  0  0  0
   -1.9892    2.0435   -0.0002 C   0  0  0  0  0  0  0  0  0  0  0  0
    1.9893   -2.0436   -0.0003 C   0  0  0  0  0  0  0  0  0  0  0  0
   -3.7396    0.3779    0.0004 C   0  0  0  0  0  0  0  0  0  0  0  0
    3.7397   -0.3780    0.0008 C   0  0  0  0  0  0  0  0  0  0  0  0
   -3.3449    1.7144    0.0004 C   0  0  0  0  0  0  0  0  0  0  0  0
    3.3450   -1.7144    0.0004 C   0  0  0  0  0  0  0  0  0  0  0  0
  1 11  1  0
  2 12  1  0
  3  9  2  0
  4 10  2  0
  5  7  2  0
  5  9  1  0
  5 11  1  0
  6  8  2  0
  6 10  1  0
  6 12  1  0
  7 10  1  0
  7 13  1  0
  8  9  1  0
  8 14  1  0
 11 15  2  0
 12 16  2  0
 13 17  2  0
 14 18  2  0
 15 17  1  0
 16 18  1  0
M  END
>  <PUBCHEM_COMPOUND_CID>  (1) 
6711

>  <PUBCHEM_CONFORMER_RMSD>  (1) 
0.4

>  <PUBCHEM_CONFORMER_DIVERSEORDER>  (1) 
1

>  <PUBCHEM_MMFF94_PARTIAL_CHARGES>  (1) 
24
1 -0.18
10 0.4
11 0.18
12 0.18
13 -0.15
14 -0.15
15 -0.15
16 -0.15
17 -0.15
18 -0.15
19 0.15
2 -0.18
20 0.15
21 0.15
22 0.15
23 0.15
24 0.15
3 -0.57
4 -0.57
5 0.09
6 0.09
7 0.09
8 0.09
9 0.4

>  <PUBCHEM_EFFECTIVE_ROTOR_COUNT>  (1) 
0

>  <PUBCHEM_PHARMACOPHORE_FEATURES>  (1) 
5
1 3 acceptor
1 4 acceptor
6 5 6 7 8 9 10 rings
6 5 7 11 13 15 17 rings
6 6 8 12 14 16 18 rings

>  <PUBCHEM_HEAVY_ATOM_COUNT>  (1) 
18

>  <PUBCHEM_ATOM_DEF_STEREO_COUNT>  (1) 
0

>  <PUBCHEM_ATOM_UDEF_STEREO_COUNT>  (1) 
0

>  <PUBCHEM_BOND_DEF_STEREO_COUNT>  (1) 
0

>  <PUBCHEM_BOND_UDEF_STEREO_COUNT>  (1) 
0

>  <PUBCHEM_ISOTOPIC_ATOM_COUNT>  (1) 
0

>  <PUBCHEM_COMPONENT_COUNT>  (1) 
1

>  <PUBCHEM_CACTVS_TAUTO_COUNT>  (1) 
1

>  <PUBCHEM_CONFORMER_ID>  (1) 
00001A3700000001

>  <PUBCHEM_MMFF94_ENERGY>  (1) 
60.2521

>  <PUBCHEM_FEATURE_SELFOVERLAP>  (1) 
25.414

>  <PUBCHEM_SHAPE_FINGERPRINT>  (1) 
10411042 1 16320905206526749122
10608611 8 18410572877166121712
10616163 171 18412266159348414646
10863032 1 18411982455256965645
10967382 1 18338517430495660805
1100329 8 16177070787981738145
11132069 177 18338792321303292136
11471102 20 18338230449518628372
11578080 2 17314203636700906572
11680986 33 18409171046974409049
13140716 1 18338797805960692113
13897977 150 18338514140550900524
14223421 5 18410575114727850003
14790565 3 16316702855694478053
15196674 1 18410855481602998277
15442244 35 18410572842948853674
15536298 74 18342457028303555588
16945 1 18266458891564875782
17492 89 18410573998058491427
17804303 29 18267309741861041246
18186145 218 18270967834289954508
193761 8 18266740362246619141
19591789 44 18410857680885047990
200 152 18059281090220390277
20510252 161 18270684276317402705
20905425 154 18269843184097250022
21267235 1 18410865334326995319
21501502 16 18410574002331320334
221490 88 18409455795054121106
2334 1 18410855455833194503
23366157 5 18113337510000392210
23402539 116 18341883057411597822
23463225 33 18337110055796717364
23558518 356 18188213212058519195
23559900 14 18270396084555270090
238 59 17104768507244729053
2748010 2 18410855417178488967
335352 9 18122343480150720959
34934 24 18337382734532777787
350125 39 18410298012033147416
5104073 3 18410575097547981768
7097593 13 17826497882402986194
7364860 26 18413388726940747692
7832392 63 18339641131395059147
8809292 202 18334581217813319315
9709674 26 18412830157311000342

>  <PUBCHEM_SHAPE_MULTIPOLES>  (1) 
362.43
6.66
2.99
0.61
0
0
0
0
0
0
0
0
0
0

>  <PUBCHEM_SHAPE_SELFOVERLAP>  (1) 
802.556

>  <PUBCHEM_SHAPE_VOLUME>  (1) 
194.1

>  <PUBCHEM_COORDINATE_TYPE>  (1) 
2
5
10

$$$$
