6717
     RDKit          3D

 20 23  0  0  1  0  0  0  0  0999 V2000
   -4.2978    1.9538    0.9210 O   0  0  0  0  0  0  0  0  0  0  0  0
   -4.1762    1.1344   -1.2026 O   0  0  0  0  0  0  0  0  0  0  0  0
   -1.7001   -1.9917    0.1254 N   0  0  0  0  0  0  0  0  0  0  0  0
    4.1354   -0.6011    0.0364 N   0  0  0  0  0  0  0  0  0  0  0  0
   -0.4247   -1.3306   -0.2709 C   0  0  0  0  0  0  0  0  0  0  0  0
   -0.3888    0.1867    0.0822 C   0  0  0  0  0  0  0  0  0  0  0  0
    0.7869   -2.1327    0.3341 C   0  0  0  0  0  0  0  0  0  0  0  0
   -2.8573   -1.1573   -0.2297 C   0  0  0  0  0  0  0  0  0  0  0  0
    2.0560   -1.3709    0.1910 C   0  0  0  0  0  0  0  0  0  0  0  0
   -2.8281    0.1591    0.5508 C   0  0  0  0  0  0  0  0  0  0  0  0
    0.9121    0.8850   -0.0221 C   0  0  0  0  0  0  0  0  0  0  0  0
    2.0189    0.0300    0.0354 C   0  0  0  0  0  0  0  0  0  0  0  0
   -1.4935    0.8359    0.4895 C   0  0  0  0  0  0  0  0  0  0  0  0
    3.3172    0.5038   -0.0564 C   0  0  0  0  0  0  0  0  0  0  0  0
   -1.8522   -3.3165   -0.4851 C   0  0  0  0  0  0  0  0  0  0  0  0
    3.3796   -1.7435    0.1892 C   0  0  0  0  0  0  0  0  0  0  0  0
    1.1676    2.2528   -0.1776 C   0  0  0  0  0  0  0  0  0  0  0  0
   -3.8281    1.1115   -0.0314 C   0  0  0  0  0  0  0  0  0  0  0  0
    3.5893    1.8640   -0.2104 C   0  0  0  0  0  0  0  0  0  0  0  0
    2.4840    2.7274   -0.2687 C   0  0  0  0  0  0  0  0  0  0  0  0
  1 18  1  0
  2 18  2  0
  3  5  1  0
  3  8  1  0
  3 15  1  0
  4 14  1  0
  4 16  1  0
  5  6  1  0
  5  7  1  0
  6 11  1  0
  6 13  2  0
  7  9  1  0
  8 10  1  0
  9 12  1  0
  9 16  2  0
 10 13  1  0
 10 18  1  0
 11 12  2  0
 11 17  1  0
 12 14  1  0
 14 19  2  0
 17 20  2  0
 19 20  1  0
M  END
>  <PUBCHEM_COMPOUND_CID>  (1) 
6717

>  <PUBCHEM_CONFORMER_RMSD>  (1) 
0.6

>  <PUBCHEM_CONFORMER_DIVERSEORDER>  (1) 
2
3
1

>  <PUBCHEM_MMFF94_PARTIAL_CHARGES>  (1) 
26
1 -0.65
10 0.2
11 0.03
13 -0.29
14 -0.15
15 0.27
16 -0.3
17 -0.15
18 0.66
19 -0.15
2 -0.57
20 -0.15
27 0.15
3 -0.81
31 0.15
32 0.15
33 0.27
34 0.15
35 0.15
36 0.5
4 0.03
5 0.41
6 -0.17
7 0.18
8 0.27
9 -0.18

>  <PUBCHEM_EFFECTIVE_ROTOR_COUNT>  (1) 
1.8

>  <PUBCHEM_PHARMACOPHORE_FEATURES>  (1) 
10
1 1 acceptor
1 2 acceptor
1 3 cation
1 4 cation
1 4 donor
3 1 2 18 anion
5 4 9 12 14 16 rings
6 11 12 14 17 19 20 rings
6 3 5 6 8 10 13 rings
6 5 6 7 9 11 12 rings

>  <PUBCHEM_HEAVY_ATOM_COUNT>  (1) 
20

>  <PUBCHEM_ATOM_DEF_STEREO_COUNT>  (1) 
2

>  <PUBCHEM_ATOM_UDEF_STEREO_COUNT>  (1) 
0

>  <PUBCHEM_BOND_DEF_STEREO_COUNT>  (1) 
0

>  <PUBCHEM_BOND_UDEF_STEREO_COUNT>  (1) 
0

>  <PUBCHEM_ISOTOPIC_ATOM_COUNT>  (1) 
0

>  <PUBCHEM_COMPONENT_COUNT>  (1) 
1

>  <PUBCHEM_CACTVS_TAUTO_COUNT>  (1) 
1

>  <PUBCHEM_CONFORMER_ID>  (1) 
00001A3D00000002

>  <PUBCHEM_MMFF94_ENERGY>  (1) 
48.4638

>  <PUBCHEM_FEATURE_SELFOVERLAP>  (1) 
51.045

>  <PUBCHEM_SHAPE_FINGERPRINT>  (1) 
10411042 1 17113540312591263659
10608611 8 18336827597087853600
10616163 171 18268433623165273566
10756046 5 18340202006884778919
10863032 1 18340769346537161676
10967382 1 18338235951540494002
1100329 8 18409729534821125162
11132069 177 18411131437968837386
11471102 20 18336543833178625252
11578080 2 17201630284514279107
116883 192 18126854794146009918
12500047 106 18411976996469791401
12507560 14 18195804068459001322
12553582 1 18192142703687540794
13140716 1 18409445908155203730
13583140 156 17676487220721728227
14178342 30 18267287919485729400
14223421 5 18121784090788725034
14790565 3 18194699081064940748
15099037 51 18338237059552515638
15196674 1 18410293631425059322
15420108 30 15899275902517419544
15442244 35 18410855469034698490
15475509 8 17626977195480614052
15536298 74 18342460387163088456
16945 1 18340495473668558122
17492 89 18338799038865284370
18186145 218 18412550894194642981
19591789 44 17762905364146911710
20510252 161 17765721612446174257
20645477 70 18411420583350891806
20739085 24 17834982779184546033
21267235 1 18411146856543181946
21501502 16 18337670948566402870
22094290 62 18409446968563674080
221490 88 18264215871181704690
22393880 68 18269002058303583140
23184049 59 18336271132704075257
23227448 37 18410572928911516423
2334 1 18194403514014961210
23402539 116 18129090135143908790
23558518 356 18044095884946785042
23559900 14 18272933826259113128
238 59 17611705017673023461
2748010 2 18338241586606223078
335352 9 18338517435181070598
34934 24 18408879625428531730
350125 39 18337960111692855027
352729 6 18272094893954336411
474 4 18269560425605838849
5104073 3 18408886256304065184
543358 83 18410296887179185148
5939293 188 18411417293912520456
633830 44 18058457508613597525
69090 78 18410007719863137435
7164475 11 18198053892482515015
7364860 26 18341334495893692144
74978 22 18411419539710801007
7832392 63 18411418431925808146
8272917 22 18126008165929394325
84936 182 18127691741348909712
9709674 26 18340773735830805750
9981440 41 17760361489577839544

>  <PUBCHEM_SHAPE_MULTIPOLES>  (1) 
389.89
7.47
3.2
0.75
2.29
0.78
-0.03
-2.77
-0.2
0.18
-0.23
0.41
-0.1
-0.62

>  <PUBCHEM_SHAPE_SELFOVERLAP>  (1) 
872.932

>  <PUBCHEM_SHAPE_VOLUME>  (1) 
206.6

>  <PUBCHEM_COORDINATE_TYPE>  (1) 
2
5
10

$$$$
