6718
     RDKit          3D

 13 13  0  0  0  0  0  0  0  0999 V2000
    1.1253    2.5916   -0.0005 Cl  0  0  0  0  0  0  0  0  0  0  0  0
   -2.5793   -2.4470   -0.0013 Cl  0  0  0  0  0  0  0  0  0  0  0  0
   -2.0642    2.8808    0.0019 Cl  0  0  0  0  0  0  0  0  0  0  0  0
    0.4042   -2.4614    0.0010 O   0  0  0  0  0  0  0  0  0  0  0  0
    2.5449   -1.4217    0.0012 O   0  0  0  0  0  0  0  0  0  0  0  0
    2.8133    0.7571   -0.0009 O   0  0  0  0  0  0  0  0  0  0  0  0
    2.0825   -0.2589    0.0002 N   0  0  0  0  0  0  0  0  0  0  0  0
    0.6663   -0.0845   -0.0005 C   0  0  0  0  0  0  0  0  0  0  0  0
   -0.1525   -1.2138    0.0001 C   0  0  0  0  0  0  0  0  0  0  0  0
    0.0976    1.1892   -0.0009 C   0  0  0  0  0  0  0  0  0  0  0  0
   -1.5399   -1.0695    0.0004 C   0  0  0  0  0  0  0  0  0  0  0  0
   -1.2897    1.3336   -0.0006 C   0  0  0  0  0  0  0  0  0  0  0  0
   -2.1085    0.2043    0.0000 C   0  0  0  0  0  0  0  0  0  0  0  0
  1 10  1  0
  2 11  1  0
  3 12  1  0
  4  9  1  0
  5  7  1  0
  6  7  2  0
  7  8  1  0
  8  9  2  0
  8 10  1  0
  9 11  1  0
 10 12  2  0
 11 13  2  0
 12 13  1  0
M  CHG  2   5  -1   7   1
M  END
>  <PUBCHEM_COMPOUND_CID>  (1) 
6718

>  <PUBCHEM_CONFORMER_RMSD>  (1) 
0.4

>  <PUBCHEM_CONFORMER_DIVERSEORDER>  (1) 
1

>  <PUBCHEM_MMFF94_PARTIAL_CHARGES>  (1) 
15
1 -0.18
10 0.18
11 0.18
12 0.18
13 -0.15
14 0.15
15 0.45
2 -0.18
3 -0.18
4 -0.53
5 -0.52
6 -0.52
7 0.91
8 0.13
9 0.08

>  <PUBCHEM_EFFECTIVE_ROTOR_COUNT>  (1) 
1

>  <PUBCHEM_PHARMACOPHORE_FEATURES>  (1) 
5
1 4 donor
1 5 acceptor
1 5 anion
1 6 acceptor
6 8 9 10 11 12 13 rings

>  <PUBCHEM_HEAVY_ATOM_COUNT>  (1) 
13

>  <PUBCHEM_ATOM_DEF_STEREO_COUNT>  (1) 
0

>  <PUBCHEM_ATOM_UDEF_STEREO_COUNT>  (1) 
0

>  <PUBCHEM_BOND_DEF_STEREO_COUNT>  (1) 
0

>  <PUBCHEM_BOND_UDEF_STEREO_COUNT>  (1) 
0

>  <PUBCHEM_ISOTOPIC_ATOM_COUNT>  (1) 
0

>  <PUBCHEM_COMPONENT_COUNT>  (1) 
1

>  <PUBCHEM_CACTVS_TAUTO_COUNT>  (1) 
4

>  <PUBCHEM_CONFORMER_ID>  (1) 
00001A3E00000001

>  <PUBCHEM_MMFF94_ENERGY>  (1) 
51.3694

>  <PUBCHEM_FEATURE_SELFOVERLAP>  (1) 
25.453

>  <PUBCHEM_SHAPE_FINGERPRINT>  (1) 
10967382 1 17329991292088188229
11206711 2 18337393841312865949
12423570 1 11543526680336786808
13140716 1 18338517564077503825
13380535 76 17979348664554119119
161256 15 18123754419873207124
16945 1 18410573963935161957
193761 8 18410855490462276517
20871998 184 18201440306649209103
21040471 1 18194401082863063525
2334 1 15672386902480657125
23552423 10 18190743222357161420
23559900 14 18055357938734224862
241688 4 18338516477345243841
2748010 2 18339923723274230964
5084963 1 18130791212681138435
66348 1 18410290306919983568

>  <PUBCHEM_SHAPE_MULTIPOLES>  (1) 
250.55
3.6
3.37
0.6
1.4
1.35
0
-0.86
0
-1.08
0
0.03
0.07
0

>  <PUBCHEM_SHAPE_SELFOVERLAP>  (1) 
507.519

>  <PUBCHEM_SHAPE_VOLUME>  (1) 
148.8

>  <PUBCHEM_COORDINATE_TYPE>  (1) 
2
5
10

$$$$
