673
     RDKit          3D

  7  6  0  0  0  0  0  0  0  0999 V2000
   -1.9775    0.7188   -0.7395 O   0  0  0  0  0  0  0  0  0  0  0  0
   -1.6150   -0.7231    0.9785 O   0  0  0  0  0  0  0  0  0  0  0  0
    1.1616   -0.1454    0.2391 N   0  0  0  0  0  0  0  0  0  0  0  0
    0.0919   -0.4691   -0.7043 C   0  0  0  0  0  0  0  0  0  0  0  0
    1.1031    1.2672    0.6129 C   0  0  0  0  0  0  0  0  0  0  0  0
    2.4664   -0.4680   -0.3373 C   0  0  0  0  0  0  0  0  0  0  0  0
   -1.2305   -0.1803   -0.0495 C   0  0  0  0  0  0  0  0  0  0  0  0
  1  7  1  0
  2  7  2  0
  3  4  1  0
  3  5  1  0
  3  6  1  0
  4  7  1  0
M  END
>  <PUBCHEM_COMPOUND_CID>  (1) 
673

>  <PUBCHEM_CONFORMER_RMSD>  (1) 
0.4

>  <PUBCHEM_CONFORMER_DIVERSEORDER>  (1) 
1
7
8
4
2
9
3
5
6

>  <PUBCHEM_MMFF94_PARTIAL_CHARGES>  (1) 
8
1 -0.65
16 0.5
2 -0.57
3 -0.81
4 0.33
5 0.27
6 0.27
7 0.66

>  <PUBCHEM_EFFECTIVE_ROTOR_COUNT>  (1) 
2

>  <PUBCHEM_PHARMACOPHORE_FEATURES>  (1) 
4
1 1 acceptor
1 2 acceptor
1 3 cation
3 1 2 7 anion

>  <PUBCHEM_HEAVY_ATOM_COUNT>  (1) 
7

>  <PUBCHEM_ATOM_DEF_STEREO_COUNT>  (1) 
0

>  <PUBCHEM_ATOM_UDEF_STEREO_COUNT>  (1) 
0

>  <PUBCHEM_BOND_DEF_STEREO_COUNT>  (1) 
0

>  <PUBCHEM_BOND_UDEF_STEREO_COUNT>  (1) 
0

>  <PUBCHEM_ISOTOPIC_ATOM_COUNT>  (1) 
0

>  <PUBCHEM_COMPONENT_COUNT>  (1) 
1

>  <PUBCHEM_CACTVS_TAUTO_COUNT>  (1) 
1

>  <PUBCHEM_CONFORMER_ID>  (1) 
000002A100000001

>  <PUBCHEM_MMFF94_ENERGY>  (1) 
13.6954

>  <PUBCHEM_FEATURE_SELFOVERLAP>  (1) 
20.355

>  <PUBCHEM_SHAPE_FINGERPRINT>  (1) 
12932741 1 18261668263589193047
16714656 1 16805605824036821135
20096714 4 17774159148876886928
21040471 1 17314213489229132893
24536 1 17604417617380142916
29004967 10 18343027674870097914
5084963 1 17632569487322770975
5460574 1 16298387937737550758

>  <PUBCHEM_SHAPE_MULTIPOLES>  (1) 
127.34
2.91
1.06
0.89
0.43
0.36
0.06
-0.24
-0.09
0.42
-0.02
-0.45
-0.03
0.2

>  <PUBCHEM_SHAPE_SELFOVERLAP>  (1) 
231.331

>  <PUBCHEM_SHAPE_VOLUME>  (1) 
83.4

>  <PUBCHEM_COORDINATE_TYPE>  (1) 
2
5
10

$$$$
