6732
     RDKit          3D

 17 18  0  0  0  0  0  0  0  0999 V2000
   -1.5400   -0.0216    1.7183 O   0  0  0  0  0  0  0  0  0  0  0  0
    0.0277    2.3726   -0.2680 O   0  0  0  0  0  0  0  0  0  0  0  0
    0.0238   -2.3657   -0.2796 O   0  0  0  0  0  0  0  0  0  0  0  0
   -3.1681    0.0046   -0.0847 C   0  0  0  0  0  0  0  0  0  0  0  0
   -0.5874    0.0045   -0.4387 C   0  0  0  0  0  0  0  0  0  0  0  0
   -1.7433    0.0019    0.5022 C   0  0  0  0  0  0  0  0  0  0  0  0
    0.3380    1.1962   -0.2728 C   0  0  0  0  0  0  0  0  0  0  0  0
    0.3363   -1.1898   -0.2792 C   0  0  0  0  0  0  0  0  0  0  0  0
   -3.3507   -1.2493   -0.9486 C   0  0  0  0  0  0  0  0  0  0  0  0
   -3.4086    1.2655   -0.9249 C   0  0  0  0  0  0  0  0  0  0  0  0
   -4.1940   -0.0222    1.0617 C   0  0  0  0  0  0  0  0  0  0  0  0
    1.7044    0.6975   -0.1111 C   0  0  0  0  0  0  0  0  0  0  0  0
    1.7035   -0.6940   -0.1149 C   0  0  0  0  0  0  0  0  0  0  0  0
    2.8706    1.4223    0.0394 C   0  0  0  0  0  0  0  0  0  0  0  0
    2.8686   -1.4212    0.0316 C   0  0  0  0  0  0  0  0  0  0  0  0
    4.0600    0.7035    0.1865 C   0  0  0  0  0  0  0  0  0  0  0  0
    4.0591   -0.7048    0.1827 C   0  0  0  0  0  0  0  0  0  0  0  0
  1  6  2  0
  2  7  2  0
  3  8  2  0
  4  6  1  0
  4  9  1  0
  4 10  1  0
  4 11  1  0
  5  6  1  0
  5  7  1  0
  5  8  1  0
  7 12  1  0
  8 13  1  0
 12 13  2  0
 12 14  1  0
 13 15  1  0
 14 16  2  0
 15 17  2  0
 16 17  1  0
M  END
>  <PUBCHEM_COMPOUND_CID>  (1) 
6732

>  <PUBCHEM_CONFORMER_RMSD>  (1) 
0.6

>  <PUBCHEM_CONFORMER_DIVERSEORDER>  (1) 
1
3
2

>  <PUBCHEM_MMFF94_PARTIAL_CHARGES>  (1) 
18
1 -0.57
12 0.09
13 0.09
14 -0.15
15 -0.15
16 -0.15
17 -0.15
2 -0.57
28 0.15
29 0.15
3 -0.57
30 0.15
31 0.15
4 0.06
5 0.18
6 0.45
7 0.42
8 0.42

>  <PUBCHEM_EFFECTIVE_ROTOR_COUNT>  (1) 
2.2

>  <PUBCHEM_PHARMACOPHORE_FEATURES>  (1) 
7
1 1 acceptor
1 2 acceptor
1 3 acceptor
1 5 anion
4 4 9 10 11 hydrophobe
5 5 7 8 12 13 rings
6 12 13 14 15 16 17 rings

>  <PUBCHEM_HEAVY_ATOM_COUNT>  (1) 
17

>  <PUBCHEM_ATOM_DEF_STEREO_COUNT>  (1) 
0

>  <PUBCHEM_ATOM_UDEF_STEREO_COUNT>  (1) 
0

>  <PUBCHEM_BOND_DEF_STEREO_COUNT>  (1) 
0

>  <PUBCHEM_BOND_UDEF_STEREO_COUNT>  (1) 
0

>  <PUBCHEM_ISOTOPIC_ATOM_COUNT>  (1) 
0

>  <PUBCHEM_COMPONENT_COUNT>  (1) 
1

>  <PUBCHEM_CACTVS_TAUTO_COUNT>  (1) 
3

>  <PUBCHEM_CONFORMER_ID>  (1) 
00001A4C00000001

>  <PUBCHEM_MMFF94_ENERGY>  (1) 
44.7535

>  <PUBCHEM_FEATURE_SELFOVERLAP>  (1) 
35.603

>  <PUBCHEM_SHAPE_FINGERPRINT>  (1) 
10062212 137 18412255138841965675
10219947 1 18410577283696890484
10967382 1 18410854356712067390
10980938 120 18409727387368839550
11132069 177 18272923917141989078
11471102 20 18410006633410472028
11578080 2 17342899782100641497
12032990 46 18335143072439037358
12236239 1 17775566438209175983
124424 183 17749104491420411833
13140716 1 18266454498567634874
13296908 3 18260267430099112977
13464514 151 17753032918097803157
13675066 3 18259985976502429689
14251717 144 18411976970620814478
14993402 34 18341048600920899942
15196674 1 18410852165930443956
15219456 202 18261109638889553805
15309172 13 18412266129331005742
15375358 24 18040432213682336720
15536298 74 18273214205618366566
15653759 3 17313109661227854649
15775835 57 18272937141135160477
15848702 151 17559686035941723078
16945 1 18411144640898687260
18186145 218 18202004330365325884
200 152 18201711873784921989
20645477 70 18339354163192503351
21267235 1 18411989069538659414
21501502 16 18048878498639957480
23184049 59 18411142437068774432
23402539 116 18343291570550772094
23402655 69 18342173345407849356
23463225 33 18409729560527254924
23493267 7 17603582997934519120
23559900 14 17386003919522560546
2748010 2 18122900924694540460
296302 2 18412263951756089472
5104073 3 18411416228291016627
63268167 104 18343020007920788944
633830 44 17676202459572685917
69090 78 18411977000648857031
77492 1 17703789223683352447
81228 2 17898302592976940468

>  <PUBCHEM_SHAPE_MULTIPOLES>  (1) 
332.24
7.48
1.84
0.96
0.5
0.01
-0.22
0.02
-0.54
-0.45
0.34
0.88
-0.01
0.01

>  <PUBCHEM_SHAPE_SELFOVERLAP>  (1) 
718.132

>  <PUBCHEM_SHAPE_VOLUME>  (1) 
185.1

>  <PUBCHEM_COORDINATE_TYPE>  (1) 
2
5
10

$$$$
