6742
     RDKit          3D

 28 31  0  0  1  0  0  0  0  0999 V2000
   -0.4574    1.1718   -1.4290 O   0  0  0  0  0  0  0  0  0  0  0  0
    4.9741    3.3746    0.3111 O   0  0  0  0  0  0  0  0  0  0  0  0
   -6.2634    2.8144    0.6272 O   0  0  0  0  0  0  0  0  0  0  0  0
   -7.1050    0.7174    0.8539 O   0  0  0  0  0  0  0  0  0  0  0  0
   -0.9178   -0.9986   -0.4093 C   0  0  0  0  0  0  0  0  0  0  0  0
   -0.1563   -0.6295    0.8860 C   0  0  0  0  0  0  0  0  0  0  0  0
    1.3256   -1.0235    0.8417 C   0  0  0  0  0  0  0  0  0  0  0  0
    2.0088   -0.2956   -0.3613 C   0  0  0  0  0  0  0  0  0  0  0  0
    3.5495   -0.6167   -0.4457 C   0  0  0  0  0  0  0  0  0  0  0  0
   -2.3387   -0.5369    0.0107 C   0  0  0  0  0  0  0  0  0  0  0  0
   -0.2781   -0.2360   -1.5876 C   0  0  0  0  0  0  0  0  0  0  0  0
    1.2342   -0.5305   -1.6901 C   0  0  0  0  0  0  0  0  0  0  0  0
    4.2273   -0.2806    0.9255 C   0  0  0  0  0  0  0  0  0  0  0  0
   -1.0346   -1.1995    1.9978 C   0  0  0  0  0  0  0  0  0  0  0  0
    2.0285   -0.6938    2.1652 C   0  0  0  0  0  0  0  0  0  0  0  0
   -2.4707   -1.0323    1.4696 C   0  0  0  0  0  0  0  0  0  0  0  0
    3.5273   -0.9721    2.1071 C   0  0  0  0  0  0  0  0  0  0  0  0
    4.2669    0.1971   -1.5623 C   0  0  0  0  0  0  0  0  0  0  0  0
   -0.9057   -2.5185   -0.7262 C   0  0  0  0  0  0  0  0  0  0  0  0
   -3.4884   -0.9923   -0.8766 C   0  0  0  0  0  0  0  0  0  0  0  0
    4.3309    1.2378    1.1828 C   0  0  0  0  0  0  0  0  0  0  0  0
    3.7896   -2.1113   -0.7838 C   0  0  0  0  0  0  0  0  0  0  0  0
    4.3328    1.6949   -1.2925 C   0  0  0  0  0  0  0  0  0  0  0  0
    5.0162    1.9777    0.0393 C   0  0  0  0  0  0  0  0  0  0  0  0
   -4.8311   -0.4923   -0.3053 C   0  0  0  0  0  0  0  0  0  0  0  0
   -3.2623   -0.5150   -2.3150 C   0  0  0  0  0  0  0  0  0  0  0  0
   -4.9001    1.0264   -0.1329 C   0  0  0  0  0  0  0  0  0  0  0  0
   -6.2023    1.4628    0.4996 C   0  0  0  0  0  0  0  0  0  0  0  0
  1 11  1  0
  2 24  1  0
  3 28  1  0
  4 28  2  0
  5  6  1  0
  5 10  1  0
  5 11  1  0
  5 19  1  0
  6  7  1  0
  6 14  1  0
  7  8  1  0
  7 15  1  0
  8  9  1  0
  8 12  1  0
  9 13  1  0
  9 18  1  0
  9 22  1  0
 10 16  1  0
 10 20  1  0
 11 12  1  0
 13 17  1  0
 13 21  1  0
 14 16  1  0
 15 17  1  0
 18 23  1  0
 20 25  1  0
 20 26  1  0
 21 24  1  0
 23 24  1  0
 25 27  1  0
 27 28  1  0
M  END
>  <PUBCHEM_COMPOUND_CID>  (1) 
6742

>  <PUBCHEM_CONFORMER_RMSD>  (1) 
0.8

>  <PUBCHEM_CONFORMER_DIVERSEORDER>  (1) 
6
8
3
11
7
9
10
12
5
1
4
2

>  <PUBCHEM_MMFF94_PARTIAL_CHARGES>  (1) 
11
1 -0.68
11 0.28
2 -0.68
24 0.28
27 0.06
28 0.66
3 -0.65
4 -0.57
59 0.4
65 0.4
68 0.5

>  <PUBCHEM_EFFECTIVE_ROTOR_COUNT>  (1) 
6.2

>  <PUBCHEM_PHARMACOPHORE_FEATURES>  (1) 
12
1 1 acceptor
1 1 donor
1 2 acceptor
1 2 donor
1 26 hydrophobe
1 3 acceptor
1 4 acceptor
3 3 4 28 anion
5 5 6 10 14 16 rings
6 5 6 7 8 11 12 rings
6 7 8 9 13 15 17 rings
6 9 13 18 21 23 24 rings

>  <PUBCHEM_HEAVY_ATOM_COUNT>  (1) 
28

>  <PUBCHEM_ATOM_DEF_STEREO_COUNT>  (1) 
9

>  <PUBCHEM_ATOM_UDEF_STEREO_COUNT>  (1) 
1

>  <PUBCHEM_BOND_DEF_STEREO_COUNT>  (1) 
0

>  <PUBCHEM_BOND_UDEF_STEREO_COUNT>  (1) 
0

>  <PUBCHEM_ISOTOPIC_ATOM_COUNT>  (1) 
0

>  <PUBCHEM_COMPONENT_COUNT>  (1) 
1

>  <PUBCHEM_CACTVS_TAUTO_COUNT>  (1) 
1

>  <PUBCHEM_CONFORMER_ID>  (1) 
00001A5600000006

>  <PUBCHEM_MMFF94_ENERGY>  (1) 
95.3188

>  <PUBCHEM_FEATURE_SELFOVERLAP>  (1) 
61.081

>  <PUBCHEM_SHAPE_FINGERPRINT>  (1) 
10 15 15430037690324793621
10498660 4 16056597720387154102
10554248 39 17702655550218170213
10693767 8 13038910988614929173
11578080 2 18115034137619434632
11763715 3 9078554896557627051
12236239 1 18260270720692953655
12403259 415 16773510075111616023
12422481 6 15791725287477424723
12596602 18 18259706705376634041
12633257 1 16153715361759590983
13140716 1 16299524952856218862
13224815 77 17313377989631724326
13533116 47 17749385919384954986
13690498 29 16342566448475831399
13782708 43 12324244971128003345
14178342 30 16371567149911423770
14251764 30 8214145140336791793
15163728 17 18202290169392871081
15183329 4 15195283102204906387
15188451 53 11097851913203683649
15238133 3 18130494302193255624
15475509 35 11530480051492867500
15840311 113 18337394847142763333
17349148 13 10735885018295602455
18222031 100 12031789166773055554
18785283 64 15358276990206764479
19377110 9 17530965826083230563
1979834 28 16515685524415059386
20775438 99 12606532469277300756
21033648 29 18339926016702436272
21267235 1 15936971825853146378
21521239 73 12823285789699540133
21641784 216 16128388047126503585
21792934 111 16588569938834204413
22122407 14 18339085998340893121
221357 26 14261360158364343306
22149856 69 16371296524407074905
2215653 11 14261636144298879257
22182313 1 15648153236481515006
22393880 68 15625929984933270367
23559900 14 17775565325871318438
23569914 152 13395291174758600913
23569914 2 17765384934698991561
268830 7 18335127709246106869
2838139 119 18341607127116548165
29717793 49 12319736960194465563
3004659 81 17346600729755139814
3472631 163 18412825810882847653
34797466 226 17845382192088090541
3680242 22 16950556705812392816
392239 28 17023175067517133656
4340502 62 16950564389223763163
465052 167 12612756813038483570
5104073 3 17240762925490806752
57724786 102 18408321099017274692
59682541 52 14836126499115361941
633830 44 18411412899823711023
7970288 3 8068934864661296496

>  <PUBCHEM_SHAPE_MULTIPOLES>  (1) 
552.75
13.8
2.33
2.05
15.12
1.42
-0.05
10.34
-2.37
-1
-0.26
-0.54
-0.48
-0.88

>  <PUBCHEM_SHAPE_SELFOVERLAP>  (1) 
1158.309

>  <PUBCHEM_SHAPE_VOLUME>  (1) 
310.1

>  <PUBCHEM_COORDINATE_TYPE>  (1) 
2
5
10

$$$$
