6750
     RDKit          3D

 26 28  0  0  1  0  0  0  0  0999 V2000
   -3.2416    1.4057   -0.0117 O   0  0  0  0  0  0  0  0  0  0  0  0
   -1.0594   -2.5899   -0.2332 O   0  0  0  0  0  0  0  0  0  0  0  0
    4.6498   -0.4888   -1.4100 O   0  0  0  0  0  0  0  0  0  0  0  0
    5.1441    1.5538   -0.2325 O   0  0  0  0  0  0  0  0  0  0  0  0
   -1.4154    1.7358   -1.3875 O   0  0  0  0  0  0  0  0  0  0  0  0
    0.5796   -2.2278    1.3541 O   0  0  0  0  0  0  0  0  0  0  0  0
   -1.2182    0.3919    0.6115 C   0  0  0  0  0  0  0  0  0  0  0  0
   -0.6987    1.2595    1.7731 C   0  0  0  0  0  0  0  0  0  0  0  0
   -0.1323   -0.4416   -0.1027 C   0  0  0  0  0  0  0  0  0  0  0  0
    0.4905    2.1210    1.3304 C   0  0  0  0  0  0  0  0  0  0  0  0
    1.2654    0.1458   -0.0825 C   0  0  0  0  0  0  0  0  0  0  0  0
    1.5630    1.3456    0.6106 C   0  0  0  0  0  0  0  0  0  0  0  0
   -0.3473    0.4287    3.0128 C   0  0  0  0  0  0  0  0  0  0  0  0
   -1.9410    1.2557   -0.3923 C   0  0  0  0  0  0  0  0  0  0  0  0
   -0.1402   -1.8431    0.4425 C   0  0  0  0  0  0  0  0  0  0  0  0
    2.2890   -0.5160   -0.7906 C   0  0  0  0  0  0  0  0  0  0  0  0
    2.8675    1.8725    0.5862 C   0  0  0  0  0  0  0  0  0  0  0  0
    3.5578    0.0247   -0.7813 C   0  0  0  0  0  0  0  0  0  0  0  0
    3.8394    1.1875   -0.1106 C   0  0  0  0  0  0  0  0  0  0  0  0
    5.6535    0.4842   -1.0549 C   0  0  0  0  0  0  0  0  0  0  0  0
   -4.0477    2.2085   -0.8801 C   0  0  0  0  0  0  0  0  0  0  0  0
   -1.1716   -3.9536    0.1861 C   0  0  0  0  0  0  0  0  0  0  0  0
   -5.4594    2.2756   -0.3180 C   0  0  0  0  0  0  0  0  0  0  0  0
   -2.2309   -4.6426   -0.6603 C   0  0  0  0  0  0  0  0  0  0  0  0
   -6.3793    3.1021   -1.1986 C   0  0  0  0  0  0  0  0  0  0  0  0
   -2.4165   -6.0953   -0.2606 C   0  0  0  0  0  0  0  0  0  0  0  0
  1 14  1  0
  1 21  1  0
  2 15  1  0
  2 22  1  0
  3 18  1  0
  3 20  1  0
  4 19  1  0
  4 20  1  0
  5 14  2  0
  6 15  2  0
  7  8  1  0
  7  9  1  0
  7 14  1  0
  8 10  1  0
  8 13  1  0
  9 11  1  0
  9 15  1  0
 10 12  1  0
 11 12  2  0
 11 16  1  0
 12 17  1  0
 16 18  2  0
 17 19  2  0
 18 19  1  0
 21 23  1  0
 22 24  1  0
 23 25  1  0
 24 26  1  0
M  END
>  <PUBCHEM_COMPOUND_CID>  (1) 
6750

>  <PUBCHEM_CONFORMER_RMSD>  (1) 
1

>  <PUBCHEM_CONFORMER_DIVERSEORDER>  (1) 
1
85
42
8
107
106
48
77
11
127
117
46
9
27
91
104
31
49
69
41
93
99
65
25
72
129
126
64
24
95
22
121
105
29
84
116
109
54
44
111
61
18
19
83
70
102
76
101
35
3
134
26
110
74
118
103
82
38
39
53
62
40
55
45
88
122
59
10
32
71
87
2
13
73
131
135
96
66
15
114
12
97
108
113
17
78
81
79
94
16
80
115
6
60
124
68
67
33
123
112
7
86
75
120
125
5
36
56
100
52
58
21
28
90
43
4
119
34
132
63
130
89
98
47
133
14
92
136
50
20
30
37
51
57
128
23

>  <PUBCHEM_MMFF94_PARTIAL_CHARGES>  (1) 
22
1 -0.43
10 0.14
11 -0.14
12 -0.14
14 0.66
15 0.66
16 -0.15
17 -0.15
18 0.08
19 0.08
2 -0.43
20 0.56
21 0.28
22 0.28
3 -0.36
35 0.15
36 0.15
4 -0.36
5 -0.57
6 -0.57
7 0.06
9 0.2

>  <PUBCHEM_EFFECTIVE_ROTOR_COUNT>  (1) 
9.4

>  <PUBCHEM_PHARMACOPHORE_FEATURES>  (1) 
9
1 25 hydrophobe
1 26 hydrophobe
1 3 acceptor
1 4 acceptor
1 5 acceptor
1 6 acceptor
5 3 4 18 19 20 rings
6 11 12 16 17 18 19 rings
6 7 8 9 10 11 12 rings

>  <PUBCHEM_HEAVY_ATOM_COUNT>  (1) 
26

>  <PUBCHEM_ATOM_DEF_STEREO_COUNT>  (1) 
0

>  <PUBCHEM_ATOM_UDEF_STEREO_COUNT>  (1) 
3

>  <PUBCHEM_BOND_DEF_STEREO_COUNT>  (1) 
0

>  <PUBCHEM_BOND_UDEF_STEREO_COUNT>  (1) 
0

>  <PUBCHEM_ISOTOPIC_ATOM_COUNT>  (1) 
0

>  <PUBCHEM_COMPONENT_COUNT>  (1) 
1

>  <PUBCHEM_CACTVS_TAUTO_COUNT>  (1) 
1

>  <PUBCHEM_CONFORMER_ID>  (1) 
00001A5E00000001

>  <PUBCHEM_MMFF94_ENERGY>  (1) 
46.9553

>  <PUBCHEM_FEATURE_SELFOVERLAP>  (1) 
45.845

>  <PUBCHEM_SHAPE_FINGERPRINT>  (1) 
10165383 225 18334858264547301445
10319688 140 17977943485269311807
10688039 33 17834679674773995190
10693767 8 17773026445726173511
10721379 63 17619917158446703541
10815517 723 18196661915969555131
1100329 8 18266453201045335026
11386260 185 17187546782705939823
11488393 25 17901957335784556923
11578080 2 18265615566875359212
12293681 160 17988077790430762073
12293681 25 17630637598638986454
12730499 353 18263085418799594705
12788726 201 17684920693596674288
12895837 130 17677913399157558156
13134695 92 9438531619573243953
13540713 4 17986672778480834624
13590594 115 17831023795034305539
15664445 248 16824759664754497429
15775530 1 17840567512290678193
17357779 13 17910948368254985214
17539 30 18194963169670957719
18365409 1 18337104679352466031
19319366 153 18198329659980121119
20602899 9 18342183215210923704
21285901 2 17690553513172560702
21344244 181 18129391414373701039
21521721 280 18341056242037588897
21857420 4 17545579611284899847
23419403 2 17201355428129488314
23558518 356 17972873936910134896
244849 19 17416107602502228153
3103668 31 18191861435349458167
3729539 64 18122355571053871710
38695281 34 18336264531697940157
394222 165 17970064439903395226
4058900 60 18196380221537769725
4461854 278 18264226828477006395
58779409 8 18410008866487595311
59025328 239 16622055831382774415
59755656 520 18200051567591602435
6025842 7 18120929504741327117
6442390 28 18410003326401926101
9658208 31 18341322379295364041

>  <PUBCHEM_SHAPE_MULTIPOLES>  (1) 
499.85
9.91
5.81
1.62
1.09
13.74
1.12
-10.35
-6.4
9.95
-0.91
-0.01
-0.66
1.27

>  <PUBCHEM_SHAPE_SELFOVERLAP>  (1) 
1054.286

>  <PUBCHEM_SHAPE_VOLUME>  (1) 
280.2

>  <PUBCHEM_COORDINATE_TYPE>  (1) 
2
5
10

$$$$
