6758
     RDKit          3D

 29 33  0  0  1  0  0  0  0  0999 V2000
   -0.7703   -0.6467   -1.2961 O   0  0  0  0  0  0  0  0  0  0  0  0
    1.6648   -2.0388   -1.7327 O   0  0  0  0  0  0  0  0  0  0  0  0
   -4.4750    0.5686    1.2480 O   0  0  0  0  0  0  0  0  0  0  0  0
    0.8178    3.1330   -1.0968 O   0  0  0  0  0  0  0  0  0  0  0  0
    4.7019    1.1118    1.6279 O   0  0  0  0  0  0  0  0  0  0  0  0
    5.0176   -1.6479    1.5673 O   0  0  0  0  0  0  0  0  0  0  0  0
    1.1459    0.8464   -1.7706 C   0  0  0  0  0  0  0  0  0  0  0  0
    0.1501   -0.1891   -2.2971 C   0  0  0  0  0  0  0  0  0  0  0  0
   -1.4089    0.3542   -0.6288 C   0  0  0  0  0  0  0  0  0  0  0  0
    2.1723    0.1970   -0.8706 C   0  0  0  0  0  0  0  0  0  0  0  0
    0.3805    1.9874   -1.1361 C   0  0  0  0  0  0  0  0  0  0  0  0
    0.9228   -1.4097   -2.7833 C   0  0  0  0  0  0  0  0  0  0  0  0
   -2.5985    0.0494    0.0098 C   0  0  0  0  0  0  0  0  0  0  0  0
   -0.9230    1.6594   -0.5264 C   0  0  0  0  0  0  0  0  0  0  0  0
   -3.3631   -1.2197    0.0406 C   0  0  0  0  0  0  0  0  0  0  0  0
   -4.3737   -0.8760    1.1461 C   0  0  0  0  0  0  0  0  0  0  0  0
   -3.3048    1.0251    0.6968 C   0  0  0  0  0  0  0  0  0  0  0  0
    2.3722   -1.1918   -0.9188 C   0  0  0  0  0  0  0  0  0  0  0  0
   -1.6466    2.6472    0.1684 C   0  0  0  0  0  0  0  0  0  0  0  0
    2.9855    0.9577   -0.0162 C   0  0  0  0  0  0  0  0  0  0  0  0
   -2.8597    2.3299    0.7822 C   0  0  0  0  0  0  0  0  0  0  0  0
   -5.7297   -1.4443    0.8920 C   0  0  0  0  0  0  0  0  0  0  0  0
    3.3167   -1.8054   -0.0895 C   0  0  0  0  0  0  0  0  0  0  0  0
    3.9361    0.3442    0.8026 C   0  0  0  0  0  0  0  0  0  0  0  0
    4.0970   -1.0374    0.7708 C   0  0  0  0  0  0  0  0  0  0  0  0
   -6.6540   -0.6041    0.0616 C   0  0  0  0  0  0  0  0  0  0  0  0
   -6.1005   -2.6383    1.3777 C   0  0  0  0  0  0  0  0  0  0  0  0
    4.1977    1.3544    2.9396 C   0  0  0  0  0  0  0  0  0  0  0  0
    6.3290   -1.8161    1.0316 C   0  0  0  0  0  0  0  0  0  0  0  0
  1  8  1  0
  1  9  1  0
  2 12  1  0
  2 18  1  0
  3 16  1  0
  3 17  1  0
  4 11  2  0
  5 24  1  0
  5 28  1  0
  6 25  1  0
  6 29  1  0
  7  8  1  0
  7 10  1  0
  7 11  1  0
  8 12  1  0
  9 13  2  0
  9 14  1  0
 10 18  2  0
 10 20  1  0
 11 14  1  0
 13 15  1  0
 13 17  1  0
 14 19  2  0
 15 16  1  0
 16 22  1  0
 17 21  2  0
 18 23  1  0
 19 21  1  0
 20 24  2  0
 22 26  1  0
 22 27  2  0
 23 25  2  0
 24 25  1  0
M  END
>  <PUBCHEM_COMPOUND_CID>  (1) 
6758

>  <PUBCHEM_CONFORMER_RMSD>  (1) 
0.8

>  <PUBCHEM_CONFORMER_DIVERSEORDER>  (1) 
1
4
3
2

>  <PUBCHEM_MMFF94_PARTIAL_CHARGES>  (1) 
35
1 -0.36
10 -0.14
11 0.42
12 0.28
13 -0.14
14 0.09
15 0.14
16 0.42
17 0.08
18 0.08
19 -0.15
2 -0.36
20 -0.15
21 -0.15
22 -0.28
23 -0.15
24 0.08
25 0.08
26 0.14
27 -0.3
28 0.28
29 0.28
3 -0.36
37 0.15
38 0.15
39 0.15
4 -0.57
40 0.15
44 0.15
45 0.15
5 -0.36
6 -0.36
7 0.2
8 0.28
9 0.08

>  <PUBCHEM_EFFECTIVE_ROTOR_COUNT>  (1) 
4.2

>  <PUBCHEM_PHARMACOPHORE_FEATURES>  (1) 
11
1 1 acceptor
1 2 acceptor
1 3 acceptor
1 4 acceptor
1 5 acceptor
1 6 acceptor
5 3 13 15 16 17 rings
6 1 7 8 9 11 14 rings
6 10 18 20 23 24 25 rings
6 2 7 8 10 12 18 rings
6 9 13 14 17 19 21 rings

>  <PUBCHEM_HEAVY_ATOM_COUNT>  (1) 
29

>  <PUBCHEM_ATOM_DEF_STEREO_COUNT>  (1) 
3

>  <PUBCHEM_ATOM_UDEF_STEREO_COUNT>  (1) 
0

>  <PUBCHEM_BOND_DEF_STEREO_COUNT>  (1) 
0

>  <PUBCHEM_BOND_UDEF_STEREO_COUNT>  (1) 
0

>  <PUBCHEM_ISOTOPIC_ATOM_COUNT>  (1) 
0

>  <PUBCHEM_COMPONENT_COUNT>  (1) 
1

>  <PUBCHEM_CACTVS_TAUTO_COUNT>  (1) 
2

>  <PUBCHEM_CONFORMER_ID>  (1) 
00001A6600000001

>  <PUBCHEM_MMFF94_ENERGY>  (1) 
113.0124

>  <PUBCHEM_FEATURE_SELFOVERLAP>  (1) 
56.095

>  <PUBCHEM_SHAPE_FINGERPRINT>  (1) 
10165383 225 17346045571098980284
10319926 262 18199756838467447254
10674148 151 14129052591536968503
11115154 58 15068618280190173999
11720765 8 13045938032211127574
11796584 16 17023188270879500731
11963148 33 17472426925305008443
1200032 147 12535355609727943038
12166972 35 17240488026272977959
12422481 6 18201716245344249741
12633257 1 17274811480772630992
12892183 10 18342172246070307768
12895836 83 10519978262398717843
12895837 130 12246808604666814882
13083527 12 18337397135985844221
13583140 156 18196073470482921196
13911987 19 12471503615803777478
14178342 30 18267315239709544925
14251751 18 17894631496125402979
14341114 328 16487253309050877307
14705955 166 18130225939345810641
14848178 5 17676490570659250843
14931854 50 11025789869437400994
14950920 106 18340475674069693546
15064986 96 17273132385094976174
15183329 4 13045940192663754547
15188451 53 18260545619758457091
15210252 30 12193166876790062920
15475509 8 13623792909734771143
17349148 13 17530980076605390099
1813 80 17167863066960075892
19784866 240 17240488000655869055
1979834 28 17988661704515232727
20028762 73 18187083944861348666
20567600 234 17203326754152752219
20567600 9 9583257015101805355
20626108 58 17240207646438646327
20775530 9 15504328212406568080
21033648 29 17346325830125146809
21304304 249 18335140886195916215
21421861 104 18264511609718301565
21458453 9 17559664230372006683
21756936 100 13829834821221395798
21792934 111 18271539615814280601
22122407 14 16486685853930653153
23536364 44 12469172693833312151
23559900 14 18056225512983778821
23572383 38 18411704258184567711
25222932 49 17614024188486637707
2838139 119 13326569631857877778
3004659 81 17022904566287404763
3459 83 13840534130606662997
3729539 64 11747200347869325017
38570 142 12967134921272043206
3886686 26 17688873034214132507
392239 28 17275095154593288131
394222 165 17906191876542597596
4098825 35 9583226262956332216
427121 178 16702032992768341350
439807 62 17751091417451503803
463206 1 15068337938578459625
49207404 50 17917715638937868940
50009960 94 17828472910709490371
5104073 3 17916602933840635363
57724786 102 15195273258277053434
59682541 52 13767918061950449307
6523845 18 17203616999484570252
6823239 73 17985860101146686300
7970288 3 18040152894431679722
960060 61 14345799365622212555

>  <PUBCHEM_SHAPE_MULTIPOLES>  (1) 
561.59
13.41
2.8
2.24
7.41
0.79
0.26
-9.15
-10.41
0.54
-0.2
-2.23
-0.18
0.93

>  <PUBCHEM_SHAPE_SELFOVERLAP>  (1) 
1254.09

>  <PUBCHEM_SHAPE_VOLUME>  (1) 
298.9

>  <PUBCHEM_COORDINATE_TYPE>  (1) 
2
5
10

$$$$
