6760
     RDKit          3D

 19 21  0  0  0  0  0  0  0  0999 V2000
   -2.8575   -2.0947   -0.2025 O   0  0  0  0  0  0  0  0  0  0  0  0
   -1.9029    2.4067    0.4783 O   0  0  0  0  0  0  0  0  0  0  0  0
    2.1038   -2.0342   -0.4274 O   0  0  0  0  0  0  0  0  0  0  0  0
    3.9595   -0.0248   -0.1924 O   0  0  0  0  0  0  0  0  0  0  0  0
   -0.5460   -1.5161   -0.2180 N   0  0  0  0  0  0  0  0  0  0  0  0
   -0.0861    0.8436    0.1407 C   0  0  0  0  0  0  0  0  0  0  0  0
    0.3132   -0.4935   -0.0939 C   0  0  0  0  0  0  0  0  0  0  0  0
   -1.4547    1.1342    0.2523 C   0  0  0  0  0  0  0  0  0  0  0  0
   -2.3658    0.0794    0.1249 C   0  0  0  0  0  0  0  0  0  0  0  0
    1.6755   -0.7533   -0.2007 C   0  0  0  0  0  0  0  0  0  0  0  0
   -1.8434   -1.1871   -0.1036 C   0  0  0  0  0  0  0  0  0  0  0  0
    0.8754    1.8606    0.2588 C   0  0  0  0  0  0  0  0  0  0  0  0
    2.6315    0.2590   -0.0832 C   0  0  0  0  0  0  0  0  0  0  0  0
    2.2312    1.5682    0.1471 C   0  0  0  0  0  0  0  0  0  0  0  0
   -3.7738   -0.0736    0.1661 C   0  0  0  0  0  0  0  0  0  0  0  0
   -4.0196   -1.4113   -0.0378 C   0  0  0  0  0  0  0  0  0  0  0  0
   -2.1726    3.2061   -0.6684 C   0  0  0  0  0  0  0  0  0  0  0  0
    2.3639   -2.8354    0.7195 C   0  0  0  0  0  0  0  0  0  0  0  0
    4.8683    1.0663   -0.0599 C   0  0  0  0  0  0  0  0  0  0  0  0
  1 11  1  0
  1 16  1  0
  2  8  1  0
  2 17  1  0
  3 10  1  0
  3 18  1  0
  4 13  1  0
  4 19  1  0
  5  7  1  0
  5 11  2  0
  6  7  2  0
  6  8  1  0
  6 12  1  0
  7 10  1  0
  8  9  2  0
  9 11  1  0
  9 15  1  0
 10 13  2  0
 12 14  2  0
 13 14  1  0
 15 16  2  0
M  END
>  <PUBCHEM_COMPOUND_CID>  (1) 
6760

>  <PUBCHEM_CONFORMER_RMSD>  (1) 
0.6

>  <PUBCHEM_CONFORMER_DIVERSEORDER>  (1) 
3
1
4
2

>  <PUBCHEM_MMFF94_PARTIAL_CHARGES>  (1) 
21
1 -0.28
10 0.08
11 0.4
12 -0.15
13 0.08
14 -0.15
15 -0.15
16 -0.01
17 0.28
18 0.28
19 0.28
2 -0.36
20 0.15
21 0.15
22 0.15
23 0.15
3 -0.36
4 -0.36
5 -0.57
7 0.31
8 0.08

>  <PUBCHEM_EFFECTIVE_ROTOR_COUNT>  (1) 
3

>  <PUBCHEM_PHARMACOPHORE_FEATURES>  (1) 
6
1 2 acceptor
1 3 acceptor
1 4 acceptor
5 1 9 11 15 16 rings
6 5 6 7 8 9 11 rings
6 6 7 10 12 13 14 rings

>  <PUBCHEM_HEAVY_ATOM_COUNT>  (1) 
19

>  <PUBCHEM_ATOM_DEF_STEREO_COUNT>  (1) 
0

>  <PUBCHEM_ATOM_UDEF_STEREO_COUNT>  (1) 
0

>  <PUBCHEM_BOND_DEF_STEREO_COUNT>  (1) 
0

>  <PUBCHEM_BOND_UDEF_STEREO_COUNT>  (1) 
0

>  <PUBCHEM_ISOTOPIC_ATOM_COUNT>  (1) 
0

>  <PUBCHEM_COMPONENT_COUNT>  (1) 
1

>  <PUBCHEM_CACTVS_TAUTO_COUNT>  (1) 
1

>  <PUBCHEM_CONFORMER_ID>  (1) 
00001A6800000003

>  <PUBCHEM_MMFF94_ENERGY>  (1) 
77.8355

>  <PUBCHEM_FEATURE_SELFOVERLAP>  (1) 
30.604

>  <PUBCHEM_SHAPE_FINGERPRINT>  (1) 
10608611 8 18340204098707977060
10616163 171 18412266142163121207
10967382 1 18267867357576006475
11132069 177 18272367632703400824
11578080 2 17387117677372131286
12553582 1 18339353175613652083
13140716 1 18123471849679589488
13221675 6 18342177795046689398
14178342 30 18338222774818544960
14223421 5 18411981338570723942
14790565 3 18267033940510625216
15196674 1 18412827984289104790
15442244 35 18194119616555668706
15536298 74 18057888137393957096
16945 1 18411693313774200641
17492 89 18337108951996358723
193761 8 18267021661150782673
19591789 44 18051131689838703054
200 152 17988640843742576527
20510252 161 18272092664723716433
20905425 154 18341897355241434774
21267235 1 18268721669663558023
21421861 104 18187926123264400962
21501502 16 18338798888318830656
23184049 29 18339078177247176651
2334 1 17691687105112232976
23366157 5 18041848286180898618
23402539 116 18342170128450808583
23463225 33 18339926016855345223
23558518 356 18189061910491549665
23559900 14 17911517598173500470
23566358 2 18341333275569079620
2748010 2 18197219148281599765
2871803 45 18411135861526676366
3312278 4 18410857698043740307
335352 9 18412829088048422357
34934 24 18412821408741946263
350125 39 18338240336396141600
43471831 8 18408318891715431354
5104073 3 18413109437770043298
7364860 26 18342459206005390782
74978 22 18121497947214030198
81228 2 18333455331060637817
8809292 202 18190182467179904123
9709674 26 18411426098189620254

>  <PUBCHEM_SHAPE_MULTIPOLES>  (1) 
362.55
7.07
3.07
0.68
2.57
0.47
0.01
-0.6
-0.17
-0.65
-0.01
0
0.02
-0.09

>  <PUBCHEM_SHAPE_SELFOVERLAP>  (1) 
806.617

>  <PUBCHEM_SHAPE_VOLUME>  (1) 
195.2

>  <PUBCHEM_COORDINATE_TYPE>  (1) 
2
5
10

$$$$
