6772
     RDKit          3D

 18 20  0  0  0  0  0  0  0  0999 V2000
   -0.2197    2.5496    0.1623 O   0  0  0  0  0  0  0  0  0  0  0  0
   -0.9900   -2.7338   -0.0757 O   0  0  0  0  0  0  0  0  0  0  0  0
    0.7540    0.4120    0.1340 C   0  0  0  0  0  0  0  0  0  0  0  0
    0.5527   -0.9685    0.0706 C   0  0  0  0  0  0  0  0  0  0  0  0
   -1.7619    0.7843    0.0148 C   0  0  0  0  0  0  0  0  0  0  0  0
   -1.9632   -0.5961   -0.0482 C   0  0  0  0  0  0  0  0  0  0  0  0
    3.1456    0.0565    0.2478 C   0  0  0  0  0  0  0  0  0  0  0  0
   -0.3959    1.3388    0.1080 C   0  0  0  0  0  0  0  0  0  0  0  0
    2.0537    0.9248    0.2230 C   0  0  0  0  0  0  0  0  0  0  0  0
   -0.8132   -1.5229   -0.0224 C   0  0  0  0  0  0  0  0  0  0  0  0
    1.6512   -1.8361    0.0956 C   0  0  0  0  0  0  0  0  0  0  0  0
    4.5304    0.6033    0.3423 C   0  0  0  0  0  0  0  0  0  0  0  0
    2.9447   -1.3210    0.1840 C   0  0  0  0  0  0  0  0  0  0  0  0
   -2.8604    1.6519   -0.0105 C   0  0  0  0  0  0  0  0  0  0  0  0
   -3.2630   -1.1088   -0.1365 C   0  0  0  0  0  0  0  0  0  0  0  0
    5.1439    0.8698   -1.0297 C   0  0  0  0  0  0  0  0  0  0  0  0
   -4.1540    1.1368   -0.0983 C   0  0  0  0  0  0  0  0  0  0  0  0
   -4.3548   -0.2407   -0.1610 C   0  0  0  0  0  0  0  0  0  0  0  0
  1  8  2  0
  2 10  2  0
  3  4  2  0
  3  8  1  0
  3  9  1  0
  4 10  1  0
  4 11  1  0
  5  6  2  0
  5  8  1  0
  5 14  1  0
  6 10  1  0
  6 15  1  0
  7  9  2  0
  7 12  1  0
  7 13  1  0
 11 13  2  0
 12 16  1  0
 14 17  2  0
 15 18  2  0
 17 18  1  0
M  END
>  <PUBCHEM_COMPOUND_CID>  (1) 
6772

>  <PUBCHEM_CONFORMER_RMSD>  (1) 
0.6

>  <PUBCHEM_CONFORMER_DIVERSEORDER>  (1) 
1

>  <PUBCHEM_MMFF94_PARTIAL_CHARGES>  (1) 
24
1 -0.57
10 0.4
11 -0.15
12 0.14
13 -0.15
14 -0.15
15 -0.15
17 -0.15
18 -0.15
19 0.15
2 -0.57
20 0.15
23 0.15
24 0.15
25 0.15
29 0.15
3 0.09
30 0.15
4 0.09
5 0.09
6 0.09
7 -0.14
8 0.4
9 -0.15

>  <PUBCHEM_EFFECTIVE_ROTOR_COUNT>  (1) 
1

>  <PUBCHEM_PHARMACOPHORE_FEATURES>  (1) 
6
1 1 acceptor
1 16 hydrophobe
1 2 acceptor
6 3 4 5 6 8 10 rings
6 3 4 7 9 11 13 rings
6 5 6 14 15 17 18 rings

>  <PUBCHEM_HEAVY_ATOM_COUNT>  (1) 
18

>  <PUBCHEM_ATOM_DEF_STEREO_COUNT>  (1) 
0

>  <PUBCHEM_ATOM_UDEF_STEREO_COUNT>  (1) 
0

>  <PUBCHEM_BOND_DEF_STEREO_COUNT>  (1) 
0

>  <PUBCHEM_BOND_UDEF_STEREO_COUNT>  (1) 
0

>  <PUBCHEM_ISOTOPIC_ATOM_COUNT>  (1) 
0

>  <PUBCHEM_COMPONENT_COUNT>  (1) 
1

>  <PUBCHEM_CACTVS_TAUTO_COUNT>  (1) 
1

>  <PUBCHEM_CONFORMER_ID>  (1) 
00001A7400000001

>  <PUBCHEM_MMFF94_ENERGY>  (1) 
50.0326

>  <PUBCHEM_FEATURE_SELFOVERLAP>  (1) 
30.488

>  <PUBCHEM_SHAPE_FINGERPRINT>  (1) 
10411042 1 17473825503604928826
10498660 4 18410294679460617084
10616163 171 18339643446393455518
10759866 29 18186802457315402194
10967382 1 18411416176878132211
11132069 177 18340478998036730849
11471102 20 18411130307975674511
12011746 2 18413106177742080989
12236239 1 17822007640750951464
12390115 104 18128833974968711249
12403814 3 17530677714791119613
12954195 1 17986974959426158068
13132413 78 18411418435936133989
13140716 1 17978795936833911203
13221675 6 18411416219695890874
13380535 76 18411980256371256402
13862211 1 18411692218568381978
14790565 3 18269000773781859457
15196674 1 18410854322062204587
15442244 35 18050564049791459802
15536298 74 18342737369245532214
16945 1 18267017443809513075
17804303 29 18342176729842123945
18186145 218 18339643313285905479
193761 8 17906730659020154699
200 152 18059845169897812445
20510252 161 18272369724442450337
20602899 9 16056883550097077070
21029758 11 18271800250739726169
21029758 27 18188215406792315909
21267235 1 18411144657614631531
21501502 16 18267866082039168130
23175994 123 16988849405535672648
2334 1 18411415094736193219
23402539 116 18271516563464156294
23402655 69 18342732979904896517
23463225 33 18337106774489176027
23557571 272 18200604703835214622
23559900 14 18126561224557815282
2748010 2 18411417268005501743
296302 2 17603868896637574796
335352 9 17907294347634260615
34934 24 18410285913120960571
350125 39 18410014368915980601
474 4 17313393382889381172
4990 188 17917437506031186156
5104073 3 18410009892773737802
537710 114 18410294709277442140
69090 78 18341607118431336703
9709674 26 18412830183128276814

>  <PUBCHEM_SHAPE_MULTIPOLES>  (1) 
358.69
8.46
2.25
0.69
3.69
0.41
0.06
-2.17
1.2
-0.54
-0.02
0.36
-0.06
-0.28

>  <PUBCHEM_SHAPE_SELFOVERLAP>  (1) 
801.81

>  <PUBCHEM_SHAPE_VOLUME>  (1) 
189.7

>  <PUBCHEM_COORDINATE_TYPE>  (1) 
2
5
10

$$$$
