6801
     RDKit          3D

 25 26  0  0  0  0  0  0  0  0999 V2000
    1.4846   -1.8319   -0.5683 O   0  0  0  0  0  0  0  0  0  0  0  0
   -2.6770   -2.9583    1.4801 O   0  0  0  0  0  0  0  0  0  0  0  0
   -4.7618   -1.6297    0.5006 O   0  0  0  0  0  0  0  0  0  0  0  0
   -5.9539    0.1637   -1.5617 O   0  0  0  0  0  0  0  0  0  0  0  0
    6.1129   -0.2443   -0.0698 C   0  0  0  0  0  0  0  0  0  0  0  0
    7.1185    0.8978   -0.2428 C   0  0  0  0  0  0  0  0  0  0  0  0
    4.6991    0.1146   -0.5325 C   0  0  0  0  0  0  0  0  0  0  0  0
    8.5149    0.5650    0.2874 C   0  0  0  0  0  0  0  0  0  0  0  0
    3.7340   -1.0501   -0.3161 C   0  0  0  0  0  0  0  0  0  0  0  0
    9.4566    1.7630    0.1556 C   0  0  0  0  0  0  0  0  0  0  0  0
    2.3332   -0.7185   -0.8111 C   0  0  0  0  0  0  0  0  0  0  0  0
   10.8355    1.4517    0.7155 C   0  0  0  0  0  0  0  0  0  0  0  0
    0.1574   -1.5633   -0.3550 C   0  0  0  0  0  0  0  0  0  0  0  0
   -0.6013   -2.4008    0.4626 C   0  0  0  0  0  0  0  0  0  0  0  0
   -0.4348   -0.4532   -0.9575 C   0  0  0  0  0  0  0  0  0  0  0  0
   -2.5445   -1.0185    0.0751 C   0  0  0  0  0  0  0  0  0  0  0  0
   -1.9524   -2.1285    0.6776 C   0  0  0  0  0  0  0  0  0  0  0  0
   -1.7857   -0.1810   -0.7425 C   0  0  0  0  0  0  0  0  0  0  0  0
   -3.9531   -0.7155    0.2878 C   0  0  0  0  0  0  0  0  0  0  0  0
   -4.4827    0.6802    0.2616 C   0  0  0  0  0  0  0  0  0  0  0  0
   -5.4586    1.0584   -0.6607 C   0  0  0  0  0  0  0  0  0  0  0  0
   -3.9878    1.6115    1.1745 C   0  0  0  0  0  0  0  0  0  0  0  0
   -5.9396    2.3679   -0.6695 C   0  0  0  0  0  0  0  0  0  0  0  0
   -4.4687    2.9208    1.1655 C   0  0  0  0  0  0  0  0  0  0  0  0
   -5.4445    3.2990    0.2434 C   0  0  0  0  0  0  0  0  0  0  0  0
  1 11  1  0
  1 13  1  0
  2 17  1  0
  3 19  2  0
  4 21  1  0
  5  6  1  0
  5  7  1  0
  6  8  1  0
  7  9  1  0
  8 10  1  0
  9 11  1  0
 10 12  1  0
 13 14  2  0
 13 15  1  0
 14 17  1  0
 15 18  2  0
 16 17  2  0
 16 18  1  0
 16 19  1  0
 19 20  1  0
 20 21  2  0
 20 22  1  0
 21 23  1  0
 22 24  2  0
 23 25  2  0
 24 25  1  0
M  END
>  <PUBCHEM_COMPOUND_CID>  (1) 
6801

>  <PUBCHEM_CONFORMER_RMSD>  (1) 
1

>  <PUBCHEM_CONFORMER_DIVERSEORDER>  (1) 
1
258
237
91
47
389
14
293
354
85
395
396
335
280
360
265
346
145
5
325
232
345
312
281
75
393
257
413
229
407
375
187
89
177
410
267
144
132
300
240
247
351
315
285
12
200
277
41
93
209
23
217
49
307
274
317
128
222
349
120
72
388
381
84
412
399
4
76
301
32
343
170
361
54
245
270
376
297
199
262
122
252
118
391
44
159
103
153
22
249
296
214
241
168
188
182
330
283
295
392
386
411
140
7
352
104
181
309
250
363
332
25
129
97
213
121
341
191
319
27
110
26
119
20
253
11
248
126
269
288
273
67
397
106
344
290
372
243
356
99
45
380
223
234
387
221
266
340
276
175
70
284
357
71
64
230
66
366
69
338
310
398
98
359
36
180
96
141
320
92
154
151
156
334
107
350
235
16
206
219
127
8
147
48
63
370
326
58
272
259
173
379
409
136
382
113
35
342
81
190
133
130
401
165
220
353
348
193
29
101
112
51
225
2
109
131
174
264
261
10
408
339
358
292
65
212
197
233
364
178
202
347
365
279
50
123
78
143
377
56
61
194
155
40
134
246
228
139
94
227
160
82
184
298
31
74
114
6
329
373
289
52
80
406
394
77
3
179
384
208
374
189
405
256
251
318
278
244
333
402
355
105
322
152
305
239
166
400
314
55
198
224
369
185
115
167
161
30
203
236
37
327
287
282
367
331
95
87
90
21
306
195
42
163
207
73
210
43
148
271
53
231
17
39
62
205
138
46
294
34
117
403
79
19
316
211
162
146
390
302
308
172
321
9
68
100
218
102
108
33
60
135
311
323
18
149
336
83
24
183
313
291
254
242
260
324
263
158
176
38
368
186
59
215
28
15
404
299
192
57
171
362
125
226
238
86
304
275
303
124
164
88
169
204
116
371
255
337
216
137
268
328
378
383
150
142
385
13
286
201
111
196
157

>  <PUBCHEM_MMFF94_PARTIAL_CHARGES>  (1) 
27
1 -0.36
11 0.28
13 0.08
14 -0.15
15 -0.15
16 0.09
17 0.08
18 -0.15
19 0.4
2 -0.53
20 0.09
21 0.08
22 -0.15
23 -0.15
24 -0.15
25 -0.15
3 -0.57
4 -0.53
43 0.15
44 0.15
45 0.15
46 0.15
47 0.15
48 0.45
49 0.15
50 0.15
51 0.45

>  <PUBCHEM_EFFECTIVE_ROTOR_COUNT>  (1) 
10

>  <PUBCHEM_PHARMACOPHORE_FEATURES>  (1) 
9
1 1 acceptor
1 12 hydrophobe
1 2 donor
1 3 acceptor
1 4 donor
3 5 7 9 hydrophobe
3 6 8 10 hydrophobe
6 13 14 15 16 17 18 rings
6 20 21 22 23 24 25 rings

>  <PUBCHEM_HEAVY_ATOM_COUNT>  (1) 
25

>  <PUBCHEM_ATOM_DEF_STEREO_COUNT>  (1) 
0

>  <PUBCHEM_ATOM_UDEF_STEREO_COUNT>  (1) 
0

>  <PUBCHEM_BOND_DEF_STEREO_COUNT>  (1) 
0

>  <PUBCHEM_BOND_UDEF_STEREO_COUNT>  (1) 
0

>  <PUBCHEM_ISOTOPIC_ATOM_COUNT>  (1) 
0

>  <PUBCHEM_COMPONENT_COUNT>  (1) 
1

>  <PUBCHEM_CACTVS_TAUTO_COUNT>  (1) 
24

>  <PUBCHEM_CONFORMER_ID>  (1) 
00001A9100000001

>  <PUBCHEM_MMFF94_ENERGY>  (1) 
63.7035

>  <PUBCHEM_FEATURE_SELFOVERLAP>  (1) 
45.683

>  <PUBCHEM_SHAPE_FINGERPRINT>  (1) 
10411042 1 17905330981288974931
10835480 77 18412545397401252230
10883706 163 18186802461284160564
11135609 201 18268441140259791097
11315181 36 18410574006626294119
11477941 20 17917419952679669941
11607047 191 12397118321674893871
125118 31 18337955697368931548
13668630 136 7925638808953299884
13782708 43 8718539476940006342
14150023 24 18060698395665048574
14347424 109 18335697184405363810
14598715 104 18131061654762734832
14729087 3 18341894104573495364
15289351 153 18272086060129398058
15350500 55 18343865520622248846
15461852 350 17703785955376842558
17093844 174 18335985350181154458
1818759 1 12685087061419632056
18643901 69 9439404644548317936
21130935 74 18260268525965620914
21307412 95 11239415092169521893
21756936 100 18411416223970032294
22288116 15 15697711592857223132
23522609 53 17096955614457625854
23559900 14 18125167026265070551
2748736 6 18410009914560004732
2838139 119 18272649039002995205
393628 179 18131058351843635648
4169191 19 18409164398887378348
437795 83 17346605145055458072
44802255 64 17418093230402799838
5104073 3 17967821500502448091
54039377 194 11095877194446587629
54728670 133 14996547453247348127
58260988 114 14707787232844934947
5937810 71 17274831211668513800
636775 72 18412262848551504840
636775 8 11815893496413615516
7970288 3 10014422795042747493
9953998 17 17676483978343120710
9995097 26 8142085378316078632
999808 66 12179842810485409056

>  <PUBCHEM_SHAPE_MULTIPOLES>  (1) 
491.01
27.3
3.21
1.08
88.23
0.84
0.04
25.27
2.55
-5.06
1.07
-1.1
-0.03
0.92

>  <PUBCHEM_SHAPE_SELFOVERLAP>  (1) 
1018.984

>  <PUBCHEM_SHAPE_VOLUME>  (1) 
280.6

>  <PUBCHEM_COORDINATE_TYPE>  (1) 
2
5
10

$$$$
