6807
     RDKit          3D

 13 13  0  0  0  0  0  0  0  0999 V2000
    0.0114    1.8252   -0.0769 O   0  0  0  0  0  0  0  0  0  0  0  0
   -3.4550   -0.2607   -0.5555 O   0  0  0  0  0  0  0  0  0  0  0  0
   -2.6594    1.6011    0.4775 O   0  0  0  0  0  0  0  0  0  0  0  0
    3.5311   -0.2070   -0.0326 O   0  0  0  0  0  0  0  0  0  0  0  0
    2.4612    1.7083   -0.1093 O   0  0  0  0  0  0  0  0  0  0  0  0
    2.4672    0.4561   -0.0490 N   0  0  0  0  0  0  0  0  0  0  0  0
   -1.1903   -0.2355    0.0384 C   0  0  0  0  0  0  0  0  0  0  0  0
    0.0171    0.4612   -0.0132 C   0  0  0  0  0  0  0  0  0  0  0  0
    1.2256   -0.2355    0.0019 C   0  0  0  0  0  0  0  0  0  0  0  0
   -1.1894   -1.6287    0.1052 C   0  0  0  0  0  0  0  0  0  0  0  0
    1.2263   -1.6289    0.0686 C   0  0  0  0  0  0  0  0  0  0  0  0
    0.0189   -2.3254    0.1202 C   0  0  0  0  0  0  0  0  0  0  0  0
   -2.4647    0.4698    0.0247 C   0  0  0  0  0  0  0  0  0  0  0  0
  1  8  1  0
  2 13  1  0
  3 13  2  0
  4  6  1  0
  5  6  2  0
  6  9  1  0
  7  8  2  0
  7 10  1  0
  7 13  1  0
  8  9  1  0
  9 11  2  0
 10 12  2  0
 11 12  1  0
M  CHG  2   4  -1   6   1
M  END
>  <PUBCHEM_COMPOUND_CID>  (1) 
6807

>  <PUBCHEM_CONFORMER_RMSD>  (1) 
0.6

>  <PUBCHEM_CONFORMER_DIVERSEORDER>  (1) 
1

>  <PUBCHEM_MMFF94_PARTIAL_CHARGES>  (1) 
18
1 -0.53
10 -0.15
11 -0.15
12 -0.15
13 0.63
14 0.15
15 0.15
16 0.15
17 0.45
18 0.5
2 -0.65
3 -0.57
4 -0.52
5 -0.52
6 0.91
7 0.09
8 0.08
9 0.13

>  <PUBCHEM_EFFECTIVE_ROTOR_COUNT>  (1) 
2

>  <PUBCHEM_PHARMACOPHORE_FEATURES>  (1) 
8
1 1 donor
1 2 acceptor
1 3 acceptor
1 4 acceptor
1 4 anion
1 5 acceptor
3 2 3 13 anion
6 7 8 9 10 11 12 rings

>  <PUBCHEM_HEAVY_ATOM_COUNT>  (1) 
13

>  <PUBCHEM_ATOM_DEF_STEREO_COUNT>  (1) 
0

>  <PUBCHEM_ATOM_UDEF_STEREO_COUNT>  (1) 
0

>  <PUBCHEM_BOND_DEF_STEREO_COUNT>  (1) 
0

>  <PUBCHEM_BOND_UDEF_STEREO_COUNT>  (1) 
0

>  <PUBCHEM_ISOTOPIC_ATOM_COUNT>  (1) 
0

>  <PUBCHEM_COMPONENT_COUNT>  (1) 
1

>  <PUBCHEM_CACTVS_TAUTO_COUNT>  (1) 
5

>  <PUBCHEM_CONFORMER_ID>  (1) 
00001A9700000001

>  <PUBCHEM_MMFF94_ENERGY>  (1) 
44.6072

>  <PUBCHEM_FEATURE_SELFOVERLAP>  (1) 
40.736

>  <PUBCHEM_SHAPE_FINGERPRINT>  (1) 
12423570 1 14237660868116992519
13380535 76 18410290311215314658
14325111 11 18410856563934789345
14993402 34 18335419088343516437
15775835 57 18271249309482988577
16945 1 18409735032030915738
19021347 11 18409163281821568571
20645476 183 17677912282191240798
20871998 184 18055081118378365239
21040471 1 18410294735073502762
23235685 24 18409442583391528326
2334 1 18121221141024960864
23402539 116 18271794752838397335
23402655 69 18195793099819585045
23463225 33 18334572413193549002
23552423 10 18194119612487444171
23559900 14 18342466963443944700
241688 4 17041481609718056994
2748010 2 18266184022490654454
528862 383 18188483562743164922
528886 8 18410288107886152690
53812653 166 18341891904695710738
63268167 104 18268429040645853537
7364860 26 18055072056023685822

>  <PUBCHEM_SHAPE_MULTIPOLES>  (1) 
233.21
4.39
2.12
0.61
0.1
0.43
0
-1.4
0.26
0.13
-0.11
-0.12
0.03
-0.19

>  <PUBCHEM_SHAPE_SELFOVERLAP>  (1) 
499.611

>  <PUBCHEM_SHAPE_VOLUME>  (1) 
128.5

>  <PUBCHEM_COORDINATE_TYPE>  (1) 
2
5
10

$$$$
