6810
     RDKit          3D

 11 12  0  0  1  0  0  0  0  0999 V2000
   -1.6863    0.6898   -0.4178 O   0  0  0  0  0  0  0  0  0  0  0  0
   -2.5786   -1.3533    0.1257 O   0  0  0  0  0  0  0  0  0  0  0  0
   -0.2364    2.4550   -0.6163 O   0  0  0  0  0  0  0  0  0  0  0  0
   -0.2505   -0.8422    0.6019 C   0  0  0  0  0  0  0  0  0  0  0  0
    0.2573    0.5692    0.8541 C   0  0  0  0  0  0  0  0  0  0  0  0
    0.4907   -1.6384   -0.4814 C   0  0  0  0  0  0  0  0  0  0  0  0
    1.7704    0.7543    0.7899 C   0  0  0  0  0  0  0  0  0  0  0  0
   -1.6465   -0.5651    0.1197 C   0  0  0  0  0  0  0  0  0  0  0  0
   -0.5255    1.3626   -0.1567 C   0  0  0  0  0  0  0  0  0  0  0  0
    1.9172   -1.2496   -0.6928 C   0  0  0  0  0  0  0  0  0  0  0  0
    2.4883   -0.1823   -0.1264 C   0  0  0  0  0  0  0  0  0  0  0  0
  1  8  1  0
  1  9  1  0
  2  8  2  0
  3  9  2  0
  4  5  1  0
  4  6  1  0
  4  8  1  0
  5  7  1  0
  5  9  1  0
  6 10  1  0
  7 11  1  0
 10 11  2  0
M  END
>  <PUBCHEM_COMPOUND_CID>  (1) 
6810

>  <PUBCHEM_CONFORMER_RMSD>  (1) 
0.4

>  <PUBCHEM_CONFORMER_DIVERSEORDER>  (1) 
1
2
3

>  <PUBCHEM_MMFF94_PARTIAL_CHARGES>  (1) 
13
1 -0.3
10 -0.29
11 -0.29
18 0.15
19 0.15
2 -0.57
3 -0.57
4 0.06
5 0.06
6 0.14
7 0.14
8 0.66
9 0.66

>  <PUBCHEM_EFFECTIVE_ROTOR_COUNT>  (1) 
0.6

>  <PUBCHEM_PHARMACOPHORE_FEATURES>  (1) 
4
1 2 acceptor
1 3 acceptor
5 1 4 5 8 9 rings
6 4 5 6 7 10 11 rings

>  <PUBCHEM_HEAVY_ATOM_COUNT>  (1) 
11

>  <PUBCHEM_ATOM_DEF_STEREO_COUNT>  (1) 
0

>  <PUBCHEM_ATOM_UDEF_STEREO_COUNT>  (1) 
2

>  <PUBCHEM_BOND_DEF_STEREO_COUNT>  (1) 
0

>  <PUBCHEM_BOND_UDEF_STEREO_COUNT>  (1) 
0

>  <PUBCHEM_ISOTOPIC_ATOM_COUNT>  (1) 
0

>  <PUBCHEM_COMPONENT_COUNT>  (1) 
1

>  <PUBCHEM_CACTVS_TAUTO_COUNT>  (1) 
3

>  <PUBCHEM_CONFORMER_ID>  (1) 
00001A9A00000001

>  <PUBCHEM_MMFF94_ENERGY>  (1) 
8.3462

>  <PUBCHEM_FEATURE_SELFOVERLAP>  (1) 
20.483

>  <PUBCHEM_SHAPE_FINGERPRINT>  (1) 
12423570 1 16521300528566341690
12524768 44 18267861855664793754
12716758 59 17834393423935783810
12897270 3 18339362968007042926
13024252 1 17024621934804217690
16945 1 18193840327680096030
18185500 45 14881990912722391706
21040471 1 17759516669051474376
21061003 4 17560795507672180234
23552423 10 18261117318301771354
23559900 14 17550667713355402518
241688 4 18410018697456641936
2748010 2 18411695504196933151
29004967 10 17704070677153773058
5084963 1 18412268307201139330

>  <PUBCHEM_SHAPE_MULTIPOLES>  (1) 
208.77
2.86
1.97
0.87
0.16
0.55
0.07
-0.85
-0.13
-0.31
-0.41
0.15
0.09
0.47

>  <PUBCHEM_SHAPE_SELFOVERLAP>  (1) 
447.386

>  <PUBCHEM_SHAPE_VOLUME>  (1) 
115.2

>  <PUBCHEM_COORDINATE_TYPE>  (1) 
2
5
10

$$$$
