6824
     RDKit          3D

 19 21  0  0  0  0  0  0  0  0999 V2000
    0.5387   -0.3949   -0.5143 N   0  0  0  0  0  0  0  0  0  0  0  0
   -0.2275   -3.0713   -0.2451 N   0  0  0  0  0  0  0  0  0  0  0  0
    1.1438   -0.2449    0.5701 N   0  0  0  0  0  0  0  0  0  0  0  0
   -1.7660    0.3251   -0.1508 C   0  0  0  0  0  0  0  0  0  0  0  0
   -3.1172   -0.0132    0.1004 C   0  0  0  0  0  0  0  0  0  0  0  0
   -0.8114   -0.6986   -0.2644 C   0  0  0  0  0  0  0  0  0  0  0  0
   -1.1834   -2.0368   -0.1325 C   0  0  0  0  0  0  0  0  0  0  0  0
   -3.4737   -1.3654    0.2304 C   0  0  0  0  0  0  0  0  0  0  0  0
   -1.4095    1.6772   -0.2809 C   0  0  0  0  0  0  0  0  0  0  0  0
   -4.0719    1.0105    0.2138 C   0  0  0  0  0  0  0  0  0  0  0  0
   -2.5121   -2.3695    0.1143 C   0  0  0  0  0  0  0  0  0  0  0  0
   -2.3711    2.6814   -0.1654 C   0  0  0  0  0  0  0  0  0  0  0  0
   -3.6998    2.3486    0.0815 C   0  0  0  0  0  0  0  0  0  0  0  0
    2.4932    0.0584    0.3209 C   0  0  0  0  0  0  0  0  0  0  0  0
    2.8886    1.3856    0.1848 C   0  0  0  0  0  0  0  0  0  0  0  0
    3.4238   -0.9703    0.2114 C   0  0  0  0  0  0  0  0  0  0  0  0
    4.2277    1.6870   -0.0634 C   0  0  0  0  0  0  0  0  0  0  0  0
    4.7629   -0.6688   -0.0366 C   0  0  0  0  0  0  0  0  0  0  0  0
    5.1648    0.6599   -0.1741 C   0  0  0  0  0  0  0  0  0  0  0  0
  1  3  2  0
  1  6  1  0
  2  7  1  0
  3 14  1  0
  4  5  2  0
  4  6  1  0
  4  9  1  0
  5  8  1  0
  5 10  1  0
  6  7  2  0
  7 11  1  0
  8 11  2  0
  9 12  2  0
 10 13  2  0
 12 13  1  0
 14 15  2  0
 14 16  1  0
 15 17  1  0
 16 18  2  0
 17 19  2  0
 18 19  1  0
M  END
>  <PUBCHEM_COMPOUND_CID>  (1) 
6824

>  <PUBCHEM_CONFORMER_RMSD>  (1) 
0.6

>  <PUBCHEM_CONFORMER_DIVERSEORDER>  (1) 
1
2
3

>  <PUBCHEM_MMFF94_PARTIAL_CHARGES>  (1) 
30
1 -0.18
10 -0.15
11 -0.15
12 -0.15
13 -0.15
14 0.18
15 -0.15
16 -0.15
17 -0.15
18 -0.15
19 -0.15
2 -0.9
20 0.15
21 0.15
22 0.15
23 0.15
24 0.15
25 0.15
26 0.4
27 0.4
28 0.15
29 0.15
3 -0.18
30 0.15
31 0.15
32 0.15
6 0.18
7 0.1
8 -0.15
9 -0.15

>  <PUBCHEM_EFFECTIVE_ROTOR_COUNT>  (1) 
2

>  <PUBCHEM_PHARMACOPHORE_FEATURES>  (1) 
5
1 2 cation
1 2 donor
6 14 15 16 17 18 19 rings
6 4 5 6 7 8 11 rings
6 4 5 9 10 12 13 rings

>  <PUBCHEM_HEAVY_ATOM_COUNT>  (1) 
19

>  <PUBCHEM_ATOM_DEF_STEREO_COUNT>  (1) 
0

>  <PUBCHEM_ATOM_UDEF_STEREO_COUNT>  (1) 
0

>  <PUBCHEM_BOND_DEF_STEREO_COUNT>  (1) 
0

>  <PUBCHEM_BOND_UDEF_STEREO_COUNT>  (1) 
0

>  <PUBCHEM_ISOTOPIC_ATOM_COUNT>  (1) 
0

>  <PUBCHEM_COMPONENT_COUNT>  (1) 
1

>  <PUBCHEM_CACTVS_TAUTO_COUNT>  (1) 
1

>  <PUBCHEM_CONFORMER_ID>  (1) 
00001AA800000001

>  <PUBCHEM_MMFF94_ENERGY>  (1) 
68.3592

>  <PUBCHEM_FEATURE_SELFOVERLAP>  (1) 
25.398

>  <PUBCHEM_SHAPE_FINGERPRINT>  (1) 
10319926 262 18340472431870655314
10411042 1 17906172111604416919
10493431 412 18269565957666621681
10608611 8 18341610442957427016
10616163 171 18410856590000401518
11405975 8 18408317775113306514
12107183 9 17902785272176808642
12173636 292 18411130355346883118
12236239 1 17748826332095176103
12390115 104 18200329705827675729
13140716 1 17760376496435768137
138480 1 17329991296262407887
14251751 93 18409163281900462682
14420673 8 18191868912581688450
14790565 3 18268437836787420481
15042514 8 18265338494129116931
15196674 1 18410573998411191736
15442244 35 18336541630229511658
17834072 32 18338517422064455985
20510252 161 18342178890447771539
20645477 56 18410296891089056612
20645477 70 16845302601264162614
21065198 57 18411418427862903942
21267235 1 18336273447575513666
21524375 3 18272083843039965431
21652331 79 18409167752898276528
2297311 6 18339938115778322262
2306618 200 18202009845388281475
23175994 123 17132122359235965296
23366157 5 17971477286407322291
23402539 116 18270956959944756703
23557571 272 18270973443849630684
23559900 14 18200878358124995526
245318 6 16376648126541298844
2748010 2 17975710394190535223
3298306 158 18130796616373061318
335352 9 18267021657430997614
3545911 37 18412265025978097808
4214541 1 18410573981331393440
5104073 3 18409445899702393712
559249 180 18337667517447086026
7097593 13 17898270728799097402
7364860 26 17836646323429901967
77779 3 18410012161043879346
9709674 26 18341899593099198878

>  <PUBCHEM_SHAPE_MULTIPOLES>  (1) 
376.07
9.68
2.94
0.66
9.93
0.41
0
-3.19
-0.36
-2.58
0.14
0.01
0
0.02

>  <PUBCHEM_SHAPE_SELFOVERLAP>  (1) 
834.604

>  <PUBCHEM_SHAPE_VOLUME>  (1) 
199.9

>  <PUBCHEM_COORDINATE_TYPE>  (1) 
2
5
10

$$$$
