6827
     RDKit          3D

 22 23  0  0  1  0  0  0  0  0999 V2000
   -5.6900    2.3140   -0.1852 O   0  0  0  0  0  0  0  0  0  0  0  0
    6.0965    1.8039   -0.3838 O   0  0  0  0  0  0  0  0  0  0  0  0
    0.0852   -0.3264   -0.0117 C   0  0  0  0  0  0  0  0  0  0  0  0
   -1.2508   -1.1638   -0.0148 C   0  0  0  0  0  0  0  0  0  0  0  0
    1.3592   -1.2448   -0.0759 C   0  0  0  0  0  0  0  0  0  0  0  0
    0.1466    0.7165    1.1349 C   0  0  0  0  0  0  0  0  0  0  0  0
   -1.3213   -2.2827   -1.0832 C   0  0  0  0  0  0  0  0  0  0  0  0
   -2.4535   -0.2214   -0.0610 C   0  0  0  0  0  0  0  0  0  0  0  0
    2.6432   -0.4183   -0.1592 C   0  0  0  0  0  0  0  0  0  0  0  0
    1.3880   -2.3408    0.9975 C   0  0  0  0  0  0  0  0  0  0  0  0
    0.1391    0.1058    2.5313 C   0  0  0  0  0  0  0  0  0  0  0  0
   -2.5208   -3.2070   -0.8945 C   0  0  0  0  0  0  0  0  0  0  0  0
   -3.3190   -0.2032    1.0090 C   0  0  0  0  0  0  0  0  0  0  0  0
   -2.6262    0.5741   -1.1710 C   0  0  0  0  0  0  0  0  0  0  0  0
    3.0805   -0.0025   -1.3960 C   0  0  0  0  0  0  0  0  0  0  0  0
    3.3129   -0.1215    1.0058 C   0  0  0  0  0  0  0  0  0  0  0  0
   -4.4165    0.6566    0.9668 C   0  0  0  0  0  0  0  0  0  0  0  0
   -3.7236    1.4341   -1.2133 C   0  0  0  0  0  0  0  0  0  0  0  0
    4.2517    0.7511   -1.4720 C   0  0  0  0  0  0  0  0  0  0  0  0
    4.4841    0.6323    0.9299 C   0  0  0  0  0  0  0  0  0  0  0  0
   -4.6189    1.4754   -0.1443 C   0  0  0  0  0  0  0  0  0  0  0  0
    4.9536    1.0688   -0.3091 C   0  0  0  0  0  0  0  0  0  0  0  0
  1 21  1  0
  2 22  1  0
  3  4  1  0
  3  5  1  0
  3  6  1  0
  4  7  1  0
  4  8  1  0
  5  9  1  0
  5 10  1  0
  6 11  1  0
  7 12  1  0
  8 13  2  0
  8 14  1  0
  9 15  2  0
  9 16  1  0
 13 17  1  0
 14 18  2  0
 15 19  1  0
 16 20  2  0
 17 21  2  0
 18 21  1  0
 19 22  2  0
 20 22  1  0
M  END
>  <PUBCHEM_COMPOUND_CID>  (1) 
6827

>  <PUBCHEM_CONFORMER_RMSD>  (1) 
0.8

>  <PUBCHEM_CONFORMER_DIVERSEORDER>  (1) 
1
8
5
12
9
7
16
15
11
3
10
2
13
17
14
18
4
6

>  <PUBCHEM_MMFF94_PARTIAL_CHARGES>  (1) 
26
1 -0.53
13 -0.15
14 -0.15
15 -0.15
16 -0.15
17 -0.15
18 -0.15
19 -0.15
2 -0.53
20 -0.15
21 0.08
22 0.08
39 0.15
4 0.14
40 0.15
41 0.15
42 0.15
43 0.15
44 0.15
45 0.15
46 0.15
47 0.45
48 0.45
5 0.14
8 -0.14
9 -0.14

>  <PUBCHEM_EFFECTIVE_ROTOR_COUNT>  (1) 
6

>  <PUBCHEM_PHARMACOPHORE_FEATURES>  (1) 
9
1 1 donor
1 10 hydrophobe
1 11 hydrophobe
1 12 hydrophobe
1 2 donor
3 3 5 6 hydrophobe
5 3 4 5 6 7 hydrophobe
6 8 13 14 17 18 21 rings
6 9 15 16 19 20 22 rings

>  <PUBCHEM_HEAVY_ATOM_COUNT>  (1) 
22

>  <PUBCHEM_ATOM_DEF_STEREO_COUNT>  (1) 
0

>  <PUBCHEM_ATOM_UDEF_STEREO_COUNT>  (1) 
3

>  <PUBCHEM_BOND_DEF_STEREO_COUNT>  (1) 
0

>  <PUBCHEM_BOND_UDEF_STEREO_COUNT>  (1) 
0

>  <PUBCHEM_ISOTOPIC_ATOM_COUNT>  (1) 
0

>  <PUBCHEM_COMPONENT_COUNT>  (1) 
1

>  <PUBCHEM_CACTVS_TAUTO_COUNT>  (1) 
4

>  <PUBCHEM_CONFORMER_ID>  (1) 
00001AAB00000001

>  <PUBCHEM_MMFF94_ENERGY>  (1) 
70.2332

>  <PUBCHEM_FEATURE_SELFOVERLAP>  (1) 
49.599

>  <PUBCHEM_SHAPE_FINGERPRINT>  (1) 
10498660 4 18131351920914760810
105312 117 18343021086321558127
10692045 39 17822558440442294976
11961588 58 18342444963640214151
12403259 118 17749115512549353149
12403814 3 17894625963832648479
12616971 3 18041270028979534122
12788726 201 16736953619769796066
12895836 83 18412825793908784749
12895837 130 18190189060361178036
12969540 114 18131067108774951941
13544653 18 9799399036406328351
13583140 156 18187370964360204779
14251764 38 18050845821527511364
14341114 328 16588318184487967013
14790565 3 18128541462063446873
15183329 4 14404907943038494257
15188451 53 12540704751330435409
15463212 79 18334847355235241979
18186145 218 18201719600156800346
18927931 339 11314301746082075243
193927 3 9079115591842316372
19784866 34 18410009927228479282
19862831 5 17846504712072039578
200 152 14405194967059859210
20028762 73 10737581521899481993
20645477 56 18412826901783227621
20645477 70 15985116197417090542
20871999 31 18130221674248249007
21069387 34 12679173934164605095
21756936 100 17822861999761136462
22079108 93 16732990829412354097
23227448 37 18340488979445950405
23402539 116 17385719240162324974
23557571 272 17987805249180978126
23559900 14 17024326118916420739
25147074 1 18264187206100972867
3472631 163 18411983589450520980
34934 24 18334010575499305873
350125 39 18270680999774469587
38570 142 15865791767238696534
392239 28 16081673131089252169
394222 165 18192148205113392787
4340502 62 16660651709200954233
465052 167 9222937201507714065
474 4 17385726902405203540
5104073 3 17531816740614125185
633830 44 17702109058626834215
70251023 43 17127872888645232775
76465 3 9871459920357517437
7808743 9 18410290337085020500
7970288 3 9295283941387158484
960060 61 15554447388311377132

>  <PUBCHEM_SHAPE_MULTIPOLES>  (1) 
441.01
11.43
2.38
1.62
4.08
1.62
-0.5
-8.97
2.02
-2.07
0.63
0.3
-0.06
-0.51

>  <PUBCHEM_SHAPE_SELFOVERLAP>  (1) 
921.251

>  <PUBCHEM_SHAPE_VOLUME>  (1) 
250.6

>  <PUBCHEM_COORDINATE_TYPE>  (1) 
2
5
10

$$$$
