6848
     RDKit          3D

 13 14  0  0  0  0  0  0  0  0999 V2000
   -2.1883   -0.6145    0.0002 N   0  0  0  0  0  0  0  0  0  0  0  0
    0.2371   -0.1902   -0.0002 C   0  0  0  0  0  0  0  0  0  0  0  0
   -1.0874    0.2769    0.0005 C   0  0  0  0  0  0  0  0  0  0  0  0
    1.3002    0.7440    0.0002 C   0  0  0  0  0  0  0  0  0  0  0  0
   -1.3599    1.6453    0.0017 C   0  0  0  0  0  0  0  0  0  0  0  0
    0.5300   -1.5637   -0.0012 C   0  0  0  0  0  0  0  0  0  0  0  0
    1.0075    2.1177    0.0010 C   0  0  0  0  0  0  0  0  0  0  0  0
    2.6247    0.2773   -0.0007 C   0  0  0  0  0  0  0  0  0  0  0  0
   -0.3144    2.5640    0.0017 C   0  0  0  0  0  0  0  0  0  0  0  0
   -2.7544   -1.0715   -1.2498 C   0  0  0  0  0  0  0  0  0  0  0  0
   -2.7444   -1.0846    1.2498 C   0  0  0  0  0  0  0  0  0  0  0  0
    1.8519   -2.0097   -0.0018 C   0  0  0  0  0  0  0  0  0  0  0  0
    2.8973   -1.0910   -0.0014 C   0  0  0  0  0  0  0  0  0  0  0  0
  1  3  1  0
  1 10  1  0
  1 11  1  0
  2  3  2  0
  2  4  1  0
  2  6  1  0
  3  5  1  0
  4  7  2  0
  4  8  1  0
  5  9  2  0
  6 12  2  0
  7  9  1  0
  8 13  2  0
 12 13  1  0
M  END
>  <PUBCHEM_COMPOUND_CID>  (1) 
6848

>  <PUBCHEM_CONFORMER_RMSD>  (1) 
0.4

>  <PUBCHEM_CONFORMER_DIVERSEORDER>  (1) 
1

>  <PUBCHEM_MMFF94_PARTIAL_CHARGES>  (1) 
18
1 -0.84
10 0.37
11 0.37
12 -0.15
13 -0.15
14 0.15
15 0.15
16 0.15
17 0.15
18 0.15
25 0.15
26 0.15
3 0.1
5 -0.15
6 -0.15
7 -0.15
8 -0.15
9 -0.15

>  <PUBCHEM_EFFECTIVE_ROTOR_COUNT>  (1) 
1

>  <PUBCHEM_PHARMACOPHORE_FEATURES>  (1) 
3
1 1 cation
6 2 3 4 5 7 9 rings
6 2 4 6 8 12 13 rings

>  <PUBCHEM_HEAVY_ATOM_COUNT>  (1) 
13

>  <PUBCHEM_ATOM_DEF_STEREO_COUNT>  (1) 
0

>  <PUBCHEM_ATOM_UDEF_STEREO_COUNT>  (1) 
0

>  <PUBCHEM_BOND_DEF_STEREO_COUNT>  (1) 
0

>  <PUBCHEM_BOND_UDEF_STEREO_COUNT>  (1) 
0

>  <PUBCHEM_ISOTOPIC_ATOM_COUNT>  (1) 
0

>  <PUBCHEM_COMPONENT_COUNT>  (1) 
1

>  <PUBCHEM_CACTVS_TAUTO_COUNT>  (1) 
1

>  <PUBCHEM_CONFORMER_ID>  (1) 
00001AC000000001

>  <PUBCHEM_MMFF94_ENERGY>  (1) 
61.4754

>  <PUBCHEM_FEATURE_SELFOVERLAP>  (1) 
15.249

>  <PUBCHEM_SHAPE_FINGERPRINT>  (1) 
10967382 1 18194683893516509510
11206711 2 18336549330694436596
11578080 2 17273102861679460217
12423570 1 15899006075850568300
13140716 1 18266741273175409704
13380535 76 17691118245347102990
16945 1 18338797943568476224
193761 8 18338517434986300612
20201158 50 18333726944454599179
20645476 183 16816336872972430422
20645477 70 18120925368614468159
20871998 184 18055355734360395191
21501502 16 18266176124193366690
22802520 49 17768262214777941606
2334 1 18410575059188700240
23388829 49 18341887536814366124
23419403 2 16819603719729460008
23552423 10 18189342277419464900
23559900 14 17262439506151749366
241688 4 18338233756648890120
2748010 2 18339637846056411636
63268167 104 18125717035517964629
6338986 31 18268967852672399615
81228 2 18192707839167204257
8809292 202 18047197349614013266

>  <PUBCHEM_SHAPE_MULTIPOLES>  (1) 
262.55
4.03
2.55
0.86
0.37
1.16
0
-2.1
0.01
-0.22
0
0.66
-0.27
0

>  <PUBCHEM_SHAPE_SELFOVERLAP>  (1) 
565.45

>  <PUBCHEM_SHAPE_VOLUME>  (1) 
145.4

>  <PUBCHEM_COORDINATE_TYPE>  (1) 
2
5
10

$$$$
