6850
     RDKit          3D

 15 16  0  0  0  0  0  0  0  0999 V2000
    2.2399   -1.0108    0.0833 S   0  0  0  0  0  0  0  0  0  0  0  0
    2.1158   -1.6988   -1.3912 O   0  0  0  0  0  0  0  0  0  0  0  0
    3.5838   -0.4721    0.1961 O   0  0  0  0  0  0  0  0  0  0  0  0
    1.7193   -1.9408    1.0683 O   0  0  0  0  0  0  0  0  0  0  0  0
   -2.8308   -2.5090    0.0146 N   0  0  0  0  0  0  0  0  0  0  0  0
   -0.2693    0.1891    0.0189 C   0  0  0  0  0  0  0  0  0  0  0  0
   -1.0961    1.3371   -0.0131 C   0  0  0  0  0  0  0  0  0  0  0  0
    1.1259    0.3480    0.0413 C   0  0  0  0  0  0  0  0  0  0  0  0
   -0.8622   -1.0841    0.0275 C   0  0  0  0  0  0  0  0  0  0  0  0
    1.6977    1.6206    0.0325 C   0  0  0  0  0  0  0  0  0  0  0  0
   -0.5035    2.6103   -0.0218 C   0  0  0  0  0  0  0  0  0  0  0  0
   -2.4914    1.1784   -0.0358 C   0  0  0  0  0  0  0  0  0  0  0  0
   -2.2503   -1.2233    0.0051 C   0  0  0  0  0  0  0  0  0  0  0  0
    0.8845    2.7497    0.0011 C   0  0  0  0  0  0  0  0  0  0  0  0
   -3.0634   -0.0942   -0.0268 C   0  0  0  0  0  0  0  0  0  0  0  0
  1  2  1  0
  1  3  2  0
  1  4  2  0
  1  8  1  0
  5 13  1  0
  6  7  1  0
  6  8  2  0
  6  9  1  0
  7 11  2  0
  7 12  1  0
  8 10  1  0
  9 13  2  0
 10 14  2  0
 11 14  1  0
 12 15  2  0
 13 15  1  0
M  END
>  <PUBCHEM_COMPOUND_CID>  (1) 
6850

>  <PUBCHEM_CONFORMER_RMSD>  (1) 
0.4

>  <PUBCHEM_CONFORMER_DIVERSEORDER>  (1) 
1
2
3

>  <PUBCHEM_MMFF94_PARTIAL_CHARGES>  (1) 
22
1 1.49
10 -0.15
11 -0.15
12 -0.15
13 0.1
14 -0.15
15 -0.15
16 0.15
17 0.15
18 0.15
19 0.15
2 -0.68
20 0.15
21 0.15
22 0.4
23 0.4
24 0.5
3 -0.65
4 -0.65
5 -0.9
8 -0.01
9 -0.15

>  <PUBCHEM_EFFECTIVE_ROTOR_COUNT>  (1) 
1

>  <PUBCHEM_PHARMACOPHORE_FEATURES>  (1) 
8
1 2 acceptor
1 3 acceptor
1 4 acceptor
1 5 cation
1 5 donor
4 1 2 3 4 anion
6 6 7 8 10 11 14 rings
6 6 7 9 12 13 15 rings

>  <PUBCHEM_HEAVY_ATOM_COUNT>  (1) 
15

>  <PUBCHEM_ATOM_DEF_STEREO_COUNT>  (1) 
0

>  <PUBCHEM_ATOM_UDEF_STEREO_COUNT>  (1) 
0

>  <PUBCHEM_BOND_DEF_STEREO_COUNT>  (1) 
0

>  <PUBCHEM_BOND_UDEF_STEREO_COUNT>  (1) 
0

>  <PUBCHEM_ISOTOPIC_ATOM_COUNT>  (1) 
0

>  <PUBCHEM_COMPONENT_COUNT>  (1) 
1

>  <PUBCHEM_CACTVS_TAUTO_COUNT>  (1) 
1

>  <PUBCHEM_CONFORMER_ID>  (1) 
00001AC200000001

>  <PUBCHEM_MMFF94_ENERGY>  (1) 
48.7188

>  <PUBCHEM_FEATURE_SELFOVERLAP>  (1) 
40.678

>  <PUBCHEM_SHAPE_FINGERPRINT>  (1) 
1 1 17689997164383283373
10967382 1 18338233752411691449
11578080 2 17169803653881414612
12382932 28 18340761568325060640
12524768 44 18343018861280565501
12553582 1 18409446942894519459
13140716 1 18411136956695883849
13380535 76 17615965955547477952
15001771 113 18411706503793080481
15375462 189 18186804647142029563
16945 1 18265614290662559905
17990270 104 18340207500190044303
193761 8 18338233881392962361
19868273 325 18338238163211255197
20510252 161 17839739270776296368
20645476 183 17536619320913729399
20645477 70 18051969514021494295
20871998 184 18129093437957889830
20871998 22 18341902874147893910
21501502 16 18338520862496446101
22213442 358 18411701010529674894
22721475 48 18412265021192396676
22802520 49 17626111836732350622
2334 1 18266178511973728121
23402539 116 18125421034698128078
23419403 2 16974697535735476609
23463225 33 18338233876818283788
23552423 10 18262519320196866693
23557571 272 18129386986731260694
23559900 14 18197213643093914398
2748010 2 18410569621670608197
33824 294 17617094046309952955
34934 24 18337662036261259432
5902787 121 18335133215383799626
7364860 26 18198341951506784201
81228 2 18196096534098780088
8809292 202 18334015011989805587

>  <PUBCHEM_SHAPE_MULTIPOLES>  (1) 
289.95
4.45
2.99
0.76
0.16
0.84
0.08
-2.25
0.02
-0.03
0
-0.3
-0.27
0.07

>  <PUBCHEM_SHAPE_SELFOVERLAP>  (1) 
622.676

>  <PUBCHEM_SHAPE_VOLUME>  (1) 
160.5

>  <PUBCHEM_COORDINATE_TYPE>  (1) 
2
5
10

$$$$
