6851
     RDKit          3D

 19 20  0  0  0  0  0  0  0  0999 V2000
    0.8719    2.5897    0.0806 S   0  0  0  0  0  0  0  0  0  0  0  0
   -3.5505   -0.4949    0.0769 S   0  0  0  0  0  0  0  0  0  0  0  0
    1.5132    2.7947   -1.4060 O   0  0  0  0  0  0  0  0  0  0  0  0
   -3.9969   -0.4953   -1.4958 O   0  0  0  0  0  0  0  0  0  0  0  0
   -0.2341    3.5224    0.2056 O   0  0  0  0  0  0  0  0  0  0  0  0
    1.9533    2.5742    1.0482 O   0  0  0  0  0  0  0  0  0  0  0  0
   -3.9073   -1.7974    0.6199 O   0  0  0  0  0  0  0  0  0  0  0  0
   -4.0511    0.7263    0.6882 O   0  0  0  0  0  0  0  0  0  0  0  0
    4.5799   -1.1775   -0.0308 N   0  0  0  0  0  0  0  0  0  0  0  0
    0.9940   -0.1890    0.0294 C   0  0  0  0  0  0  0  0  0  0  0  0
    0.1970    0.9669    0.0597 C   0  0  0  0  0  0  0  0  0  0  0  0
    0.3703   -1.4594    0.0136 C   0  0  0  0  0  0  0  0  0  0  0  0
   -1.8081   -0.3774    0.0586 C   0  0  0  0  0  0  0  0  0  0  0  0
   -1.1948    0.8718    0.0740 C   0  0  0  0  0  0  0  0  0  0  0  0
   -1.0319   -1.5362    0.0286 C   0  0  0  0  0  0  0  0  0  0  0  0
    2.3962   -0.1121    0.0141 C   0  0  0  0  0  0  0  0  0  0  0  0
    1.1672   -2.6154   -0.0168 C   0  0  0  0  0  0  0  0  0  0  0  0
    3.1724   -1.2711   -0.0162 C   0  0  0  0  0  0  0  0  0  0  0  0
    2.5591   -2.5203   -0.0317 C   0  0  0  0  0  0  0  0  0  0  0  0
  1  3  1  0
  1  5  2  0
  1  6  2  0
  1 11  1  0
  2  4  1  0
  2  7  2  0
  2  8  2  0
  2 13  1  0
  9 18  1  0
 10 11  2  0
 10 12  1  0
 10 16  1  0
 11 14  1  0
 12 15  2  0
 12 17  1  0
 13 14  2  0
 13 15  1  0
 16 18  2  0
 17 19  2  0
 18 19  1  0
M  END
>  <PUBCHEM_COMPOUND_CID>  (1) 
6851

>  <PUBCHEM_CONFORMER_RMSD>  (1) 
0.6

>  <PUBCHEM_CONFORMER_DIVERSEORDER>  (1) 
1
2

>  <PUBCHEM_MMFF94_PARTIAL_CHARGES>  (1) 
26
1 1.49
11 -0.01
13 -0.01
14 -0.15
15 -0.15
16 -0.15
17 -0.15
18 0.1
19 -0.15
2 1.49
20 0.15
21 0.15
22 0.15
23 0.15
24 0.15
25 0.4
26 0.4
27 0.5
28 0.5
3 -0.68
4 -0.68
5 -0.65
6 -0.65
7 -0.65
8 -0.65
9 -0.9

>  <PUBCHEM_EFFECTIVE_ROTOR_COUNT>  (1) 
2

>  <PUBCHEM_PHARMACOPHORE_FEATURES>  (1) 
12
1 3 acceptor
1 4 acceptor
1 5 acceptor
1 6 acceptor
1 7 acceptor
1 8 acceptor
1 9 cation
1 9 donor
4 1 3 5 6 anion
4 2 4 7 8 anion
6 10 11 12 13 14 15 rings
6 10 12 16 17 18 19 rings

>  <PUBCHEM_HEAVY_ATOM_COUNT>  (1) 
19

>  <PUBCHEM_ATOM_DEF_STEREO_COUNT>  (1) 
0

>  <PUBCHEM_ATOM_UDEF_STEREO_COUNT>  (1) 
0

>  <PUBCHEM_BOND_DEF_STEREO_COUNT>  (1) 
0

>  <PUBCHEM_BOND_UDEF_STEREO_COUNT>  (1) 
0

>  <PUBCHEM_ISOTOPIC_ATOM_COUNT>  (1) 
0

>  <PUBCHEM_COMPONENT_COUNT>  (1) 
1

>  <PUBCHEM_CACTVS_TAUTO_COUNT>  (1) 
1

>  <PUBCHEM_CONFORMER_ID>  (1) 
00001AC300000001

>  <PUBCHEM_MMFF94_ENERGY>  (1) 
50.3347

>  <PUBCHEM_FEATURE_SELFOVERLAP>  (1) 
61.037

>  <PUBCHEM_SHAPE_FINGERPRINT>  (1) 
104564 63 18124599682490598012
10967382 1 18339080513819882706
11680986 33 18266459999919834450
116883 192 17909271282204688887
12553582 1 18338797806156292899
13132413 78 18341899524152628165
13134695 92 18341321249703017653
13140716 1 18266742561301867915
138480 1 18411139155803716968
14787075 74 18259993677758917946
14790565 3 18194129744395228744
15042514 8 17617381679900429602
15490181 7 17474401643222535190
15490181 8 17690268735376217570
16945 1 18411696599477189443
17357779 13 18265597823689499205
18785283 64 18116448126736682193
193761 8 17906735057030288170
19591789 44 17328880196717512578
20510252 161 18125158230419156258
20645477 70 18263634234052405719
20671657 1 18268996564560174773
21029758 11 18411694361735632374
21029758 27 18408892814882753006
21041028 32 18340217319013018289
21267235 1 18339934731191729043
21524375 3 17756982681328116937
21639500 275 18267011937798505487
221490 88 18263650730716094491
2255824 54 18338803432383719357
23184049 29 17832702370815650658
2334 1 17906172102512607851
23388829 49 18341336586904513792
23402539 116 18270392789761765102
23419403 2 18045188658071541252
23557571 272 18054797174301673342
23559900 14 18338507655820170779
23598291 2 17988073508500971927
2748010 2 18195799674596622822
3071541 12 18339645666875469896
3071541 158 18334011696301212501
3091708 16 9141698685525127384
34934 24 18266736870865826275
350125 39 17904490949302394618
352729 6 17113249499611066946
458136 41 17903095652209600209
54173680 148 17690562979359628290
6438718 38 17557131801721510853
68521 5 18266745684143687102
7364860 26 18340487892776850744
7471813 234 17988062466414464061
81228 2 17905620907868624323
84936 182 17915458513518133641

>  <PUBCHEM_SHAPE_MULTIPOLES>  (1) 
358.51
6.38
3.6
0.85
3.36
2.82
0.18
-3.55
0.09
-1.85
-0.03
0.31
0.27
-0.03

>  <PUBCHEM_SHAPE_SELFOVERLAP>  (1) 
756.744

>  <PUBCHEM_SHAPE_VOLUME>  (1) 
202.1

>  <PUBCHEM_COORDINATE_TYPE>  (1) 
2
5
10

$$$$
