6854
     RDKit          3D

 13 15  0  0  0  0  0  0  0  0999 V2000
    0.0000    1.6351    0.0004 N   0  0  0  0  0  0  0  0  0  0  0  0
   -0.7155   -0.4768    0.0003 C   0  0  0  0  0  0  0  0  0  0  0  0
    0.7156   -0.4768    0.0004 C   0  0  0  0  0  0  0  0  0  0  0  0
   -1.1320    0.8546    0.0001 C   0  0  0  0  0  0  0  0  0  0  0  0
    1.1320    0.8547    0.0003 C   0  0  0  0  0  0  0  0  0  0  0  0
   -1.6969   -1.4903    0.0002 C   0  0  0  0  0  0  0  0  0  0  0  0
    1.6968   -1.4904    0.0003 C   0  0  0  0  0  0  0  0  0  0  0  0
   -2.4814    1.2258   -0.0002 C   0  0  0  0  0  0  0  0  0  0  0  0
    2.4814    1.2258    0.0000 C   0  0  0  0  0  0  0  0  0  0  0  0
   -3.0504   -1.1348   -0.0003 C   0  0  0  0  0  0  0  0  0  0  0  0
    3.0504   -1.1348   -0.0003 C   0  0  0  0  0  0  0  0  0  0  0  0
   -3.4347    0.2039   -0.0005 C   0  0  0  0  0  0  0  0  0  0  0  0
    3.4346    0.2040   -0.0007 C   0  0  0  0  0  0  0  0  0  0  0  0
  1  4  1  0
  1  5  1  0
  2  3  1  0
  2  4  2  0
  2  6  1  0
  3  5  2  0
  3  7  1  0
  4  8  1  0
  5  9  1  0
  6 10  2  0
  7 11  2  0
  8 12  2  0
  9 13  2  0
 10 12  1  0
 11 13  1  0
M  END
>  <PUBCHEM_COMPOUND_CID>  (1) 
6854

>  <PUBCHEM_CONFORMER_RMSD>  (1) 
0.4

>  <PUBCHEM_CONFORMER_DIVERSEORDER>  (1) 
1

>  <PUBCHEM_MMFF94_PARTIAL_CHARGES>  (1) 
20
1 0.03
10 -0.15
11 -0.15
12 -0.15
13 -0.15
14 0.27
15 0.15
16 0.15
17 0.15
18 0.15
19 0.15
20 0.15
21 0.15
22 0.15
4 -0.15
5 -0.15
6 -0.15
7 -0.15
8 -0.15
9 -0.15

>  <PUBCHEM_EFFECTIVE_ROTOR_COUNT>  (1) 
0

>  <PUBCHEM_PHARMACOPHORE_FEATURES>  (1) 
5
1 1 cation
1 1 donor
5 1 2 3 4 5 rings
6 2 4 6 8 10 12 rings
6 3 5 7 9 11 13 rings

>  <PUBCHEM_HEAVY_ATOM_COUNT>  (1) 
13

>  <PUBCHEM_ATOM_DEF_STEREO_COUNT>  (1) 
0

>  <PUBCHEM_ATOM_UDEF_STEREO_COUNT>  (1) 
0

>  <PUBCHEM_BOND_DEF_STEREO_COUNT>  (1) 
0

>  <PUBCHEM_BOND_UDEF_STEREO_COUNT>  (1) 
0

>  <PUBCHEM_ISOTOPIC_ATOM_COUNT>  (1) 
0

>  <PUBCHEM_COMPONENT_COUNT>  (1) 
1

>  <PUBCHEM_CACTVS_TAUTO_COUNT>  (1) 
1

>  <PUBCHEM_CONFORMER_ID>  (1) 
00001AC600000001

>  <PUBCHEM_MMFF94_ENERGY>  (1) 
28.2378

>  <PUBCHEM_FEATURE_SELFOVERLAP>  (1) 
25.551

>  <PUBCHEM_SHAPE_FINGERPRINT>  (1) 
10608611 8 18410569587105394753
10967382 1 18410575114743765190
11132069 177 18411411817501988736
11471102 20 18410569582852196933
11769659 78 18410849962570237286
12032990 46 18410580582221432163
12491281 212 18341063920995534881
13296908 3 18410577283691882051
13380535 76 18410854364911936551
14144814 61 18411419501061344195
14325111 11 18410573989446613313
15196674 1 18410575088958156647
15219456 202 18411698785551953728
15442244 35 18195246616016116298
15536298 74 18343302570099153898
16945 1 18410856559639919492
17844478 74 17967821535209754165
18186145 218 17894347761199225286
193761 8 17329710916570234401
200 152 18060126666143559967
20201158 50 18410573976561802386
20645477 70 18411976927998501151
20871998 184 18202004356467829015
21267235 1 18410865355733247011
21501502 16 18410856563934782852
21501925 9 18337942454960930002
2334 1 18410574015226791202
23402655 69 18341320112132848245
23463225 33 18409166601904829622
23552423 10 18261113005938062022
23559900 14 18269551655430436546
2748010 2 18410855464428429998
3312278 4 18411422825307970051
5104073 3 18410855464423130098
528886 8 18411414020783372746
53812653 166 18272082846634167096
57096353 35 18338236097289762334
69090 78 18342170060216758255
7364860 26 18270119148984737280
8809292 202 18260834820885649595
9709674 26 18411704300316985294

>  <PUBCHEM_SHAPE_MULTIPOLES>  (1) 
262.55
5.62
1.71
0.61
0
0.05
0
0.49
0
0
0
0
0.01
0

>  <PUBCHEM_SHAPE_SELFOVERLAP>  (1) 
596.957

>  <PUBCHEM_SHAPE_VOLUME>  (1) 
139.4

>  <PUBCHEM_COORDINATE_TYPE>  (1) 
2
5
10

$$$$
