6857
     RDKit          3D

 20 21  0  0  0  0  0  0  0  0999 V2000
    1.4437    1.1336    0.0160 O   0  0  0  0  0  0  0  0  0  0  0  0
   -0.1001   -0.5094    0.4797 N   0  0  0  0  0  0  0  0  0  0  0  0
    4.8102   -0.3377    0.2182 N   0  0  0  0  0  0  0  0  0  0  0  0
   -1.6416   -2.3048    0.9782 C   0  0  0  0  0  0  0  0  0  0  0  0
   -1.7999   -3.1918   -0.2655 C   0  0  0  0  0  0  0  0  0  0  0  0
   -1.3911   -0.8766    0.6246 C   0  0  0  0  0  0  0  0  0  0  0  0
   -2.2143    1.3167    0.1310 C   0  0  0  0  0  0  0  0  0  0  0  0
   -2.0954   -4.6442    0.1083 C   0  0  0  0  0  0  0  0  0  0  0  0
   -0.8781    1.7380   -0.0289 C   0  0  0  0  0  0  0  0  0  0  0  0
   -2.4685   -0.0188    0.4646 C   0  0  0  0  0  0  0  0  0  0  0  0
    0.1248    0.7845    0.1578 C   0  0  0  0  0  0  0  0  0  0  0  0
    3.7924    0.6791   -0.0003 C   0  0  0  0  0  0  0  0  0  0  0  0
    2.4027    0.1043    0.2228 C   0  0  0  0  0  0  0  0  0  0  0  0
   -3.2506    2.2476   -0.0488 C   0  0  0  0  0  0  0  0  0  0  0  0
   -0.6020    3.0739   -0.3637 C   0  0  0  0  0  0  0  0  0  0  0  0
   -2.2913   -5.5089   -1.1268 C   0  0  0  0  0  0  0  0  0  0  0  0
   -2.9647    3.5729   -0.3814 C   0  0  0  0  0  0  0  0  0  0  0  0
   -1.6434    3.9852   -0.5385 C   0  0  0  0  0  0  0  0  0  0  0  0
    6.1513    0.2256    0.0444 C   0  0  0  0  0  0  0  0  0  0  0  0
    4.6159   -1.4695   -0.6914 C   0  0  0  0  0  0  0  0  0  0  0  0
  1 11  1  0
  1 13  1  0
  2  6  2  0
  2 11  1  0
  3 12  1  0
  3 19  1  0
  3 20  1  0
  4  5  1  0
  4  6  1  0
  5  8  1  0
  6 10  1  0
  7  9  1  0
  7 10  2  0
  7 14  1  0
  8 16  1  0
  9 11  2  0
  9 15  1  0
 12 13  1  0
 14 17  2  0
 15 18  2  0
 17 18  1  0
M  END
>  <PUBCHEM_COMPOUND_CID>  (1) 
6857

>  <PUBCHEM_CONFORMER_RMSD>  (1) 
0.8

>  <PUBCHEM_CONFORMER_DIVERSEORDER>  (1) 
1
139
14
41
110
109
10
11
67
119
84
100
126
114
130
40
107
12
18
117
47
17
70
124
35
111
95
23
104
55
65
16
32
97
6
85
115
99
13
131
57
60
78
59
51
106
118
64
86
125
88
44
89
87
4
33
128
102
29
5
108
49
129
103
52
62
45
132
134
3
31
61
127
105
73
24
123
133
92
21
2
25
28
71
91
26
20
138
63
27
34
80
48
22
98
7
140
120
43
36
46
58
50
79
54
30
19
122
56
39
93
66
90
74
136
69
75
37
8
15
53
81
137
68
82
9
38
76
77
94
112
42
121
135
101
113
72
83
116
96

>  <PUBCHEM_MMFF94_PARTIAL_CHARGES>  (1) 
20
1 -0.36
10 -0.15
11 0.39
12 0.27
13 0.28
14 -0.15
15 -0.15
17 -0.15
18 -0.15
19 0.27
2 -0.62
20 0.27
27 0.15
3 -0.81
32 0.15
33 0.15
37 0.15
38 0.15
4 0.14
6 0.17

>  <PUBCHEM_EFFECTIVE_ROTOR_COUNT>  (1) 
7

>  <PUBCHEM_PHARMACOPHORE_FEATURES>  (1) 
4
1 16 hydrophobe
1 3 cation
6 2 6 7 9 10 11 rings
6 7 9 14 15 17 18 rings

>  <PUBCHEM_HEAVY_ATOM_COUNT>  (1) 
20

>  <PUBCHEM_ATOM_DEF_STEREO_COUNT>  (1) 
0

>  <PUBCHEM_ATOM_UDEF_STEREO_COUNT>  (1) 
0

>  <PUBCHEM_BOND_DEF_STEREO_COUNT>  (1) 
0

>  <PUBCHEM_BOND_UDEF_STEREO_COUNT>  (1) 
0

>  <PUBCHEM_ISOTOPIC_ATOM_COUNT>  (1) 
0

>  <PUBCHEM_COMPONENT_COUNT>  (1) 
1

>  <PUBCHEM_CACTVS_TAUTO_COUNT>  (1) 
2

>  <PUBCHEM_CONFORMER_ID>  (1) 
00001AC900000001

>  <PUBCHEM_MMFF94_ENERGY>  (1) 
49.062

>  <PUBCHEM_FEATURE_SELFOVERLAP>  (1) 
20.324

>  <PUBCHEM_SHAPE_FINGERPRINT>  (1) 
10319926 262 18338496583958965432
10411042 1 18049162468924654114
11056379 131 18337966670450794574
12107183 9 17908441478267068091
12173636 292 18191303771688167332
12293681 25 17693342918469093933
12553582 1 17831315156434517522
12788726 201 18261382377692165147
13004483 165 18196083580440732194
13540713 4 17105389671755292929
138480 1 16680909939832551938
14508225 48 18123459738214946415
14844126 61 18334857238218442402
15042514 8 18335711571738222707
16087824 20 18408885145152486483
17539 30 18339072808553842047
19141452 34 18270693076700520243
20028762 73 18343310280193321131
20645477 70 16750422791902837539
20775438 99 17550062242781704477
21065198 57 18409449159952043584
21133410 171 17472078208146556730
21478907 32 18194119844336855835
22849339 104 18267888128380917510
23366157 5 17034167684445589961
23402539 116 18412258437545790717
23559900 14 18268710516382310240
23598288 3 18115608043770417110
23728640 28 18335985280991939088
257057 1 18050006893896321369
3071541 12 17112129638739920713
3298306 158 17908146477889111790
458136 41 17835524812885047913
532947 4 17619913851048072526
559249 180 18043810875902943466
7364860 26 17328860998609377321
77188 2 17905888437345013535
9709674 26 18341335505284853446
9981440 41 18120090576678562705

>  <PUBCHEM_SHAPE_MULTIPOLES>  (1) 
395.76
8.4
6.87
0.83
20.54
8.19
0.04
0.31
0.54
-11.01
2.41
-0.23
0.44
0.15

>  <PUBCHEM_SHAPE_SELFOVERLAP>  (1) 
817.494

>  <PUBCHEM_SHAPE_VOLUME>  (1) 
229.4

>  <PUBCHEM_COORDINATE_TYPE>  (1) 
2
5
10

$$$$
