6868
     RDKit          3D

 16 17  0  0  0  0  0  0  0  0999 V2000
   -3.2132   -0.6198    0.0832 S   0  0  0  0  0  0  0  0  0  0  0  0
    0.2310    3.1205   -0.0169 O   0  0  0  0  0  0  0  0  0  0  0  0
   -3.6426   -0.7800   -1.4861 O   0  0  0  0  0  0  0  0  0  0  0  0
   -3.2170   -1.9550    0.6628 O   0  0  0  0  0  0  0  0  0  0  0  0
   -4.0169    0.4438    0.6651 O   0  0  0  0  0  0  0  0  0  0  0  0
    4.2790   -1.9015   -0.0124 N   0  0  0  0  0  0  0  0  0  0  0  0
    0.8235   -0.5255    0.0215 C   0  0  0  0  0  0  0  0  0  0  0  0
    1.0925    0.8637   -0.0005 C   0  0  0  0  0  0  0  0  0  0  0  0
   -1.5626   -0.0508    0.0510 C   0  0  0  0  0  0  0  0  0  0  0  0
   -0.5097   -0.9664    0.0470 C   0  0  0  0  0  0  0  0  0  0  0  0
    0.0205    1.7711    0.0034 C   0  0  0  0  0  0  0  0  0  0  0  0
   -1.2979    1.3154    0.0290 C   0  0  0  0  0  0  0  0  0  0  0  0
    1.8955   -1.4327    0.0172 C   0  0  0  0  0  0  0  0  0  0  0  0
    2.4256    1.3048   -0.0262 C   0  0  0  0  0  0  0  0  0  0  0  0
    3.2138   -0.9769   -0.0082 C   0  0  0  0  0  0  0  0  0  0  0  0
    3.4784    0.3894   -0.0298 C   0  0  0  0  0  0  0  0  0  0  0  0
  1  3  1  0
  1  4  2  0
  1  5  2  0
  1  9  1  0
  2 11  1  0
  6 15  1  0
  7  8  2  0
  7 10  1  0
  7 13  1  0
  8 11  1  0
  8 14  1  0
  9 10  2  0
  9 12  1  0
 11 12  2  0
 13 15  2  0
 14 16  2  0
 15 16  1  0
M  END
>  <PUBCHEM_COMPOUND_CID>  (1) 
6868

>  <PUBCHEM_CONFORMER_RMSD>  (1) 
0.6

>  <PUBCHEM_CONFORMER_DIVERSEORDER>  (1) 
1

>  <PUBCHEM_MMFF94_PARTIAL_CHARGES>  (1) 
23
1 1.49
10 -0.15
11 0.08
12 -0.15
13 -0.15
14 -0.15
15 0.1
16 -0.15
17 0.15
18 0.15
19 0.15
2 -0.53
20 0.15
21 0.15
22 0.45
23 0.4
24 0.4
25 0.5
3 -0.68
4 -0.65
5 -0.65
6 -0.9
9 -0.01

>  <PUBCHEM_EFFECTIVE_ROTOR_COUNT>  (1) 
1

>  <PUBCHEM_PHARMACOPHORE_FEATURES>  (1) 
9
1 2 donor
1 3 acceptor
1 4 acceptor
1 5 acceptor
1 6 cation
1 6 donor
4 1 3 4 5 anion
6 7 8 13 14 15 16 rings
6 7 8 9 10 11 12 rings

>  <PUBCHEM_HEAVY_ATOM_COUNT>  (1) 
16

>  <PUBCHEM_ATOM_DEF_STEREO_COUNT>  (1) 
0

>  <PUBCHEM_ATOM_UDEF_STEREO_COUNT>  (1) 
0

>  <PUBCHEM_BOND_DEF_STEREO_COUNT>  (1) 
0

>  <PUBCHEM_BOND_UDEF_STEREO_COUNT>  (1) 
0

>  <PUBCHEM_ISOTOPIC_ATOM_COUNT>  (1) 
0

>  <PUBCHEM_COMPONENT_COUNT>  (1) 
1

>  <PUBCHEM_CACTVS_TAUTO_COUNT>  (1) 
19

>  <PUBCHEM_CONFORMER_ID>  (1) 
00001AD400000001

>  <PUBCHEM_MMFF94_ENERGY>  (1) 
48.5918

>  <PUBCHEM_FEATURE_SELFOVERLAP>  (1) 
45.752

>  <PUBCHEM_SHAPE_FINGERPRINT>  (1) 
10618630 7 18409451366910885044
10967382 1 18266461082356944864
11132069 177 18411695482743195872
11471102 20 18409444812505922357
11543360 7 15647347367440819218
116883 192 18197503930583588516
11769659 78 18343861117167849334
12032990 46 18409453587235072682
12553582 1 18336261236946737011
13140716 1 18340491053999673776
13296908 3 18335142028799206595
13583140 156 14404894748287005095
13760787 5 18408044013243673127
14251717 144 18339635754148849711
14289901 80 15482679008411812695
14576447 43 18056467576823824415
14790565 3 17977113684107665516
15196674 1 18410576192775223355
15442244 35 18412549807826373529
15536298 74 18343584053539283152
16945 1 18267020746312439460
18186145 218 17748824120303232123
193761 8 17689718562665671707
200 152 18130497587590171967
20281475 54 18336551598368551167
20645477 70 18411132550128393079
20871998 184 18057602075434164700
20871998 22 18199760154324553302
21267235 1 18338809939317558771
21501502 16 18339086978057159344
21501925 9 18410283701814092530
221490 88 18118692246938170531
2334 1 18410856555397810160
23402539 116 18342449305715201638
23463225 33 18410859862649072756
23557571 272 18128825140389236164
23559900 14 18335979792746576978
2748010 2 18411408493213450668
3091708 16 9066555861992145904
3286 77 17203033145376654154
335352 9 18266179422506873181
5104073 3 18411139142760320083
54173680 148 18050288059983409898
7364860 26 18196655326481894560
81228 2 18194979434511413600
8809292 202 18259992569309157259

>  <PUBCHEM_SHAPE_MULTIPOLES>  (1) 
304.66
6.85
2.29
0.74
1.21
1.08
0.13
-3.48
0.1
-0.6
-0.08
0.54
-0.11
-0.06

>  <PUBCHEM_SHAPE_SELFOVERLAP>  (1) 
655.039

>  <PUBCHEM_SHAPE_VOLUME>  (1) 
169

>  <PUBCHEM_COORDINATE_TYPE>  (1) 
2
5
10

$$$$
