6870
     RDKit          3D

 14 15  0  0  0  0  0  0  0  0999 V2000
   -1.5309    2.3809    0.0005 S   0  0  0  0  0  0  0  0  0  0  0  0
   -3.4944    1.6847    0.0040 S   0  0  0  0  0  0  0  0  0  0  0  0
    1.2823   -1.8744   -0.0059 O   0  0  0  0  0  0  0  0  0  0  0  0
    3.0418   -0.7527    0.0201 O   0  0  0  0  0  0  0  0  0  0  0  0
   -1.0464   -1.4268   -0.0015 N   0  0  0  0  0  0  0  0  0  0  0  0
    1.5655    1.0553   -0.0028 N   0  0  0  0  0  0  0  0  0  0  0  0
   -1.7760   -0.2736    0.0000 C   0  0  0  0  0  0  0  0  0  0  0  0
   -0.8541    0.8160   -0.0007 C   0  0  0  0  0  0  0  0  0  0  0  0
    0.4011    0.3703   -0.0021 C   0  0  0  0  0  0  0  0  0  0  0  0
    0.3216   -1.1238   -0.0030 C   0  0  0  0  0  0  0  0  0  0  0  0
   -1.6012   -2.7599   -0.0014 C   0  0  0  0  0  0  0  0  0  0  0  0
   -3.0807   -0.0115    0.0019 C   0  0  0  0  0  0  0  0  0  0  0  0
    2.8237    0.4565   -0.0043 C   0  0  0  0  0  0  0  0  0  0  0  0
    3.9478    1.4592   -0.0048 C   0  0  0  0  0  0  0  0  0  0  0  0
  1  2  1  0
  1  8  1  0
  2 12  1  0
  3 10  2  0
  4 13  2  0
  5  7  1  0
  5 10  1  0
  5 11  1  0
  6  9  1  0
  6 13  1  0
  7  8  1  0
  7 12  2  0
  8  9  2  0
  9 10  1  0
 13 14  1  0
M  END
>  <PUBCHEM_COMPOUND_CID>  (1) 
6870

>  <PUBCHEM_CONFORMER_RMSD>  (1) 
0.6

>  <PUBCHEM_CONFORMER_DIVERSEORDER>  (1) 
1
2
3
4

>  <PUBCHEM_MMFF94_PARTIAL_CHARGES>  (1) 
16
1 -0.1
10 0.62
11 0.3
12 -0.05
13 0.57
14 0.06
18 0.15
19 0.37
2 -0.1
3 -0.57
4 -0.57
5 -0.47
6 -0.54
7 0.11
8 0.1
9 0.12

>  <PUBCHEM_EFFECTIVE_ROTOR_COUNT>  (1) 
2

>  <PUBCHEM_PHARMACOPHORE_FEATURES>  (1) 
5
1 3 acceptor
1 4 acceptor
1 6 donor
5 1 2 7 8 12 rings
5 5 7 8 9 10 rings

>  <PUBCHEM_HEAVY_ATOM_COUNT>  (1) 
14

>  <PUBCHEM_ATOM_DEF_STEREO_COUNT>  (1) 
0

>  <PUBCHEM_ATOM_UDEF_STEREO_COUNT>  (1) 
0

>  <PUBCHEM_BOND_DEF_STEREO_COUNT>  (1) 
0

>  <PUBCHEM_BOND_UDEF_STEREO_COUNT>  (1) 
0

>  <PUBCHEM_ISOTOPIC_ATOM_COUNT>  (1) 
0

>  <PUBCHEM_COMPONENT_COUNT>  (1) 
1

>  <PUBCHEM_CACTVS_TAUTO_COUNT>  (1) 
2

>  <PUBCHEM_CONFORMER_ID>  (1) 
00001AD600000001

>  <PUBCHEM_MMFF94_ENERGY>  (1) 
42.8792

>  <PUBCHEM_FEATURE_SELFOVERLAP>  (1) 
25.692

>  <PUBCHEM_SHAPE_FINGERPRINT>  (1) 
10608611 8 18411980247834017360
10967382 1 18338516339690116101
11132069 177 18410851088052239480
13140716 1 18122067764947018601
13380535 21 18411991255734827310
13380535 76 18340484482673239367
14325111 11 18410575063225490496
14648413 74 17616533956751905833
14897335 6 18411132524194603996
15309172 13 18338806602465378737
15669948 3 18339074999124111590
15775835 57 18412267220252789944
16945 1 18410856576888256527
18186145 218 18199191680784771821
193761 8 18410293566832141031
20510252 161 18343024393378115921
20588541 1 18341615936088664801
20871998 184 18128261270917505991
21501502 16 18411411787295020047
21524375 3 18270394980220952941
2334 1 17834394901251455301
23402539 116 18270672173495110535
23402655 69 18197483040670328245
23463225 33 18262515892934225384
23557571 272 18198919186927328356
23559900 14 18272371984565899388
2748010 2 18192718843157941389
3071541 12 17908426844637106887
3312278 4 18338801237898056680
528886 8 18411412938298522920
53812653 166 18342735191486259753
54173680 148 18265616657332237699
6333449 129 18411698815854192613
69090 78 18412258424280794709
7364860 26 17836365947827604015
81228 2 18193545899372138755
9709674 26 18342742927096834830

>  <PUBCHEM_SHAPE_MULTIPOLES>  (1) 
274.11
5.65
2.65
0.6
3.22
0.93
0
-2.82
-0.01
-1.15
0
-0.07
-0.05
-0.01

>  <PUBCHEM_SHAPE_SELFOVERLAP>  (1) 
567.92

>  <PUBCHEM_SHAPE_VOLUME>  (1) 
161

>  <PUBCHEM_COORDINATE_TYPE>  (1) 
2
5
10

$$$$
