6881
     RDKit          3D

 19 20  0  0  0  0  0  0  0  0999 V2000
    0.8699    0.5974   -0.1263 O   0  0  0  0  0  0  0  0  0  0  0  0
    2.4039    2.2640    0.2844 O   0  0  0  0  0  0  0  0  0  0  0  0
    4.8492    1.5137   -0.6947 N   0  0  0  0  0  0  0  0  0  0  0  0
    3.1216   -0.0042    0.1260 C   0  0  0  0  0  0  0  0  0  0  0  0
    4.4233    0.2363   -0.2670 C   0  0  0  0  0  0  0  0  0  0  0  0
   -3.8128    0.2160    0.1684 C   0  0  0  0  0  0  0  0  0  0  0  0
    2.7031   -1.2529    0.5452 C   0  0  0  0  0  0  0  0  0  0  0  0
   -0.1811    1.5526   -0.1674 C   0  0  0  0  0  0  0  0  0  0  0  0
    2.1179    1.0898    0.1089 C   0  0  0  0  0  0  0  0  0  0  0  0
    5.3433   -0.8118   -0.2403 C   0  0  0  0  0  0  0  0  0  0  0  0
   -2.5382    0.8801    0.3924 C   0  0  0  0  0  0  0  0  0  0  0  0
   -1.4679    0.8396   -0.4336 C   0  0  0  0  0  0  0  0  0  0  0  0
    3.6230   -2.3010    0.5721 C   0  0  0  0  0  0  0  0  0  0  0  0
    4.9431   -2.0804    0.1792 C   0  0  0  0  0  0  0  0  0  0  0  0
   -3.8949   -0.8536   -0.7230 C   0  0  0  0  0  0  0  0  0  0  0  0
   -4.9531    0.6492    0.8449 C   0  0  0  0  0  0  0  0  0  0  0  0
   -5.1173   -1.4902   -0.9379 C   0  0  0  0  0  0  0  0  0  0  0  0
   -6.1755    0.0126    0.6300 C   0  0  0  0  0  0  0  0  0  0  0  0
   -6.2576   -1.0572   -0.2613 C   0  0  0  0  0  0  0  0  0  0  0  0
  1  8  1  0
  1  9  1  0
  2  9  2  0
  3  5  1  0
  4  5  2  0
  4  7  1  0
  4  9  1  0
  5 10  1  0
  6 11  1  0
  6 15  2  0
  6 16  1  0
  7 13  2  0
  8 12  1  0
 10 14  2  0
 11 12  2  0
 13 14  1  0
 15 17  1  0
 16 18  2  0
 17 19  2  0
 18 19  1  0
M  END
>  <PUBCHEM_COMPOUND_CID>  (1) 
6881

>  <PUBCHEM_CONFORMER_RMSD>  (1) 
0.8

>  <PUBCHEM_CONFORMER_DIVERSEORDER>  (1) 
1
71
29
26
68
4
53
39
73
13
76
24
79
40
16
55
30
9
54
28
41
59
19
72
63
78
45
12
69
47
36
49
42
31
77
34
2
60
35
44
17
15
27
6
62
50
65
3
38
33
43
66
20
21
46
18
57
23
70
32
74
58
48
25
51
64
75
61
22
52
7
10
8
67
11
14
5
37
56

>  <PUBCHEM_MMFF94_PARTIAL_CHARGES>  (1) 
32
1 -0.43
10 -0.15
11 -0.18
12 -0.29
13 -0.15
14 -0.15
15 -0.15
16 -0.15
17 -0.15
18 -0.15
19 -0.15
2 -0.57
20 0.15
23 0.15
24 0.15
25 0.15
26 0.15
27 0.15
28 0.15
29 0.15
3 -0.9
30 0.15
31 0.15
32 0.15
33 0.4
34 0.4
4 0.09
5 0.1
6 0.03
7 -0.15
8 0.42
9 0.63

>  <PUBCHEM_EFFECTIVE_ROTOR_COUNT>  (1) 
5

>  <PUBCHEM_PHARMACOPHORE_FEATURES>  (1) 
5
1 2 acceptor
1 3 cation
1 3 donor
6 4 5 7 10 13 14 rings
6 6 15 16 17 18 19 rings

>  <PUBCHEM_HEAVY_ATOM_COUNT>  (1) 
19

>  <PUBCHEM_ATOM_DEF_STEREO_COUNT>  (1) 
0

>  <PUBCHEM_ATOM_UDEF_STEREO_COUNT>  (1) 
0

>  <PUBCHEM_BOND_DEF_STEREO_COUNT>  (1) 
0

>  <PUBCHEM_BOND_UDEF_STEREO_COUNT>  (1) 
1

>  <PUBCHEM_ISOTOPIC_ATOM_COUNT>  (1) 
0

>  <PUBCHEM_COMPONENT_COUNT>  (1) 
1

>  <PUBCHEM_CACTVS_TAUTO_COUNT>  (1) 
2

>  <PUBCHEM_CONFORMER_ID>  (1) 
00001AE100000001

>  <PUBCHEM_MMFF94_ENERGY>  (1) 
64.1372

>  <PUBCHEM_FEATURE_SELFOVERLAP>  (1) 
25.371

>  <PUBCHEM_SHAPE_FINGERPRINT>  (1) 
10299344 5 18341619213016862399
10595046 47 18341333387592124529
12107183 9 17909556051811550233
12236239 1 18272373074901854881
12516196 113 18342175578775161929
12596602 18 17489585679574310434
13167823 11 18342737438223237941
13533116 47 18412545435386220409
13551218 46 18341050735931518431
13685833 64 18187089464310009147
13955234 65 18268708488388224368
14576447 43 18408604726220752978
15110567 62 18334011662142538442
15188451 53 16343123828057064503
15250474 111 18200864171431539079
15348495 7 14692278582353478135
15537594 2 18341612641732957967
17492 89 18121497947926706402
17834072 33 18411138034621794464
17844677 252 18334861588873068013
17857418 61 18413386532022399503
19489759 90 16271929299191715673
20028762 73 18342172229118103910
20645477 70 18259702285638904146
21065198 48 18272374170102951065
21267235 1 18339929212912653574
212847 35 8286197245459211238
220451 1 18342464759329194885
22061861 79 17822006506510365903
2215653 11 18040992947685749715
22950370 63 18412545401147710137
235170 7 16226322629843758023
23522609 53 18124346914949706721
23559900 14 18338229492263531233
239999 70 18202288026452194860
2767999 5 9295286131993883511
2871803 45 17822008683910923002
2916195 48 11383831563367735263
3004659 81 18187082828348283194
314194 84 18409452487649462179
3411729 13 16629385034465355760
351380 3 18413105056950944703
4073 2 18191307276270158987
4214541 1 18341332211013743497
46194498 28 17095525136037872764
465052 167 18343867710164331590
5104073 3 18201431420699653176
559249 180 18342736296321099943
57483677 66 18413388739656727593
59682541 35 18341884222091150922
960060 61 18040721372044238684

>  <PUBCHEM_SHAPE_MULTIPOLES>  (1) 
374.29
16.87
2.09
0.83
11.03
0.29
-0.01
6.57
-0.16
-2.22
0.03
0.49
0.09
-1.36

>  <PUBCHEM_SHAPE_SELFOVERLAP>  (1) 
798.137

>  <PUBCHEM_SHAPE_VOLUME>  (1) 
207.1

>  <PUBCHEM_COORDINATE_TYPE>  (1) 
2
5
10

$$$$
