6897
     RDKit          3D

  9  9  0  0  0  0  0  0  0  0999 V2000
    2.7673   -0.6652   -0.0005 Cl  0  0  0  0  0  0  0  0  0  0  0  0
    0.1354   -2.1678    0.0009 N   0  0  0  0  0  0  0  0  0  0  0  0
   -1.2214   -0.1555    0.0000 C   0  0  0  0  0  0  0  0  0  0  0  0
    0.0377   -0.7560   -0.0001 C   0  0  0  0  0  0  0  0  0  0  0  0
   -1.3309    1.2350    0.0001 C   0  0  0  0  0  0  0  0  0  0  0  0
    1.1872    0.0341   -0.0002 C   0  0  0  0  0  0  0  0  0  0  0  0
   -2.4716   -0.9742   -0.0007 C   0  0  0  0  0  0  0  0  0  0  0  0
   -0.1814    2.0250    0.0003 C   0  0  0  0  0  0  0  0  0  0  0  0
    1.0777    1.4246    0.0002 C   0  0  0  0  0  0  0  0  0  0  0  0
  1  6  1  0
  2  4  1  0
  3  4  2  0
  3  5  1  0
  3  7  1  0
  4  6  1  0
  5  8  2  0
  6  9  2  0
  8  9  1  0
M  END
>  <PUBCHEM_COMPOUND_CID>  (1) 
6897

>  <PUBCHEM_CONFORMER_RMSD>  (1) 
0.4

>  <PUBCHEM_CONFORMER_DIVERSEORDER>  (1) 
1

>  <PUBCHEM_MMFF94_PARTIAL_CHARGES>  (1) 
14
1 -0.18
10 0.15
14 0.15
15 0.15
16 0.4
17 0.4
2 -0.9
3 -0.14
4 0.1
5 -0.15
6 0.18
7 0.14
8 -0.15
9 -0.15

>  <PUBCHEM_EFFECTIVE_ROTOR_COUNT>  (1) 
0

>  <PUBCHEM_PHARMACOPHORE_FEATURES>  (1) 
3
1 2 cation
1 2 donor
6 3 4 5 6 8 9 rings

>  <PUBCHEM_HEAVY_ATOM_COUNT>  (1) 
9

>  <PUBCHEM_ATOM_DEF_STEREO_COUNT>  (1) 
0

>  <PUBCHEM_ATOM_UDEF_STEREO_COUNT>  (1) 
0

>  <PUBCHEM_BOND_DEF_STEREO_COUNT>  (1) 
0

>  <PUBCHEM_BOND_UDEF_STEREO_COUNT>  (1) 
0

>  <PUBCHEM_ISOTOPIC_ATOM_COUNT>  (1) 
0

>  <PUBCHEM_COMPONENT_COUNT>  (1) 
1

>  <PUBCHEM_CACTVS_TAUTO_COUNT>  (1) 
1

>  <PUBCHEM_CONFORMER_ID>  (1) 
00001AF100000001

>  <PUBCHEM_MMFF94_ENERGY>  (1) 
32.3008

>  <PUBCHEM_FEATURE_SELFOVERLAP>  (1) 
15.223

>  <PUBCHEM_SHAPE_FINGERPRINT>  (1) 
12423570 1 17536859341072242893
16945 1 18122343484525081924
18185500 45 18338516318194031205
193761 8 17762338011493153411
21040471 1 17762056940454449601
23552423 10 18117286848071765710
241688 4 18410573976588163489
2748010 2 18410287034128712269
29004967 10 18191024714709089137
5084963 1 18202283623387951834

>  <PUBCHEM_SHAPE_MULTIPOLES>  (1) 
182.1
2.91
2.11
0.61
0.67
0.22
0
-0.97
0
-0.18
0
0.01
0.02
0

>  <PUBCHEM_SHAPE_SELFOVERLAP>  (1) 
368.283

>  <PUBCHEM_SHAPE_VOLUME>  (1) 
107.1

>  <PUBCHEM_COORDINATE_TYPE>  (1) 
2
5
10

$$$$
