69
     RDKit          3D

 11 10  0  0  0  0  0  0  0  0999 V2000
    1.6392   -1.7069   -0.0002 O   0  0  0  0  0  0  0  0  0  0  0  0
   -3.4340   -1.2288    0.0007 O   0  0  0  0  0  0  0  0  0  0  0  0
    3.9724   -0.5077   -0.0011 O   0  0  0  0  0  0  0  0  0  0  0  0
    3.1074    1.5972    0.0003 O   0  0  0  0  0  0  0  0  0  0  0  0
   -0.8117   -0.1560    0.0002 C   0  0  0  0  0  0  0  0  0  0  0  0
   -1.9124    0.6079    0.0005 C   0  0  0  0  0  0  0  0  0  0  0  0
    0.5259    0.4024    0.0006 C   0  0  0  0  0  0  0  0  0  0  0  0
   -3.2670   -0.0121   -0.0004 C   0  0  0  0  0  0  0  0  0  0  0  0
    1.6539   -0.3269    0.0004 C   0  0  0  0  0  0  0  0  0  0  0  0
   -4.4291    0.9447   -0.0010 C   0  0  0  0  0  0  0  0  0  0  0  0
    2.9554    0.3862    0.0002 C   0  0  0  0  0  0  0  0  0  0  0  0
  1  9  1  0
  2  8  2  0
  3 11  1  0
  4 11  2  0
  5  6  2  0
  5  7  1  0
  6  8  1  0
  7  9  2  0
  8 10  1  0
  9 11  1  0
M  END
>  <PUBCHEM_COMPOUND_CID>  (1) 
69

>  <PUBCHEM_CONFORMER_RMSD>  (1) 
0.6

>  <PUBCHEM_CONFORMER_DIVERSEORDER>  (1) 
1
15
16
10
3
4
5
14
6
12
11
7
8
2
9
13

>  <PUBCHEM_MMFF94_PARTIAL_CHARGES>  (1) 
16
1 -0.53
10 0.06
11 0.71
12 0.15
13 0.15
14 0.15
18 0.45
19 0.5
2 -0.57
3 -0.65
4 -0.57
5 -0.15
6 -0.14
7 -0.15
8 0.49
9 0.09

>  <PUBCHEM_EFFECTIVE_ROTOR_COUNT>  (1) 
3

>  <PUBCHEM_PHARMACOPHORE_FEATURES>  (1) 
5
1 1 donor
1 2 acceptor
1 3 acceptor
1 4 acceptor
3 3 4 11 anion

>  <PUBCHEM_HEAVY_ATOM_COUNT>  (1) 
11

>  <PUBCHEM_ATOM_DEF_STEREO_COUNT>  (1) 
0

>  <PUBCHEM_ATOM_UDEF_STEREO_COUNT>  (1) 
0

>  <PUBCHEM_BOND_DEF_STEREO_COUNT>  (1) 
0

>  <PUBCHEM_BOND_UDEF_STEREO_COUNT>  (1) 
2

>  <PUBCHEM_ISOTOPIC_ATOM_COUNT>  (1) 
0

>  <PUBCHEM_COMPONENT_COUNT>  (1) 
1

>  <PUBCHEM_CACTVS_TAUTO_COUNT>  (1) 
7

>  <PUBCHEM_CONFORMER_ID>  (1) 
0000004500000001

>  <PUBCHEM_MMFF94_ENERGY>  (1) 
16.4009

>  <PUBCHEM_FEATURE_SELFOVERLAP>  (1) 
25.429

>  <PUBCHEM_SHAPE_FINGERPRINT>  (1) 
10219947 1 18187085074436830980
11062470 55 18114181930208392901
12932764 1 17530955861347419501
14325111 11 18410574002531773889
14415576 193 18408889537796520988
14445660 50 18341902883265271353
170605 34 18408322202839518474
17834072 33 18343577473976368533
18186145 218 18113050532479628389
190213 19 17561367278987254073
20201158 50 18407761421623126595
20279233 1 18260554407250865195
20645477 56 18113898209475788581
20645477 70 18269834225186257015
22485316 2 18410852157625475719
23402539 116 17894622656343833444
23402655 69 18413670197036993764
3248919 1 17561086860925913103
449060 50 18408889533933966213

>  <PUBCHEM_SHAPE_MULTIPOLES>  (1) 
202.9
8.15
1.27
0.58
2.65
0.13
0
-1.02
0
-0.32
0
0.05
-0.02
0

>  <PUBCHEM_SHAPE_SELFOVERLAP>  (1) 
395.416

>  <PUBCHEM_SHAPE_VOLUME>  (1) 
121.3

>  <PUBCHEM_COORDINATE_TYPE>  (1) 
2
5
10

$$$$
