6906
     RDKit          3D

 12 12  0  0  0  0  0  0  0  0999 V2000
   -2.8351   -1.7358    0.0018 Br  0  0  0  0  0  0  0  0  0  0  0  0
    2.8326   -1.7397    0.0001 Br  0  0  0  0  0  0  0  0  0  0  0  0
    2.8838    1.6185    0.0015 Br  0  0  0  0  0  0  0  0  0  0  0  0
   -2.8816    1.6220    0.0007 Br  0  0  0  0  0  0  0  0  0  0  0  0
    0.0023    3.2967    0.0002 Br  0  0  0  0  0  0  0  0  0  0  0  0
   -0.0010   -1.4185   -0.0009 C   0  0  0  0  0  0  0  0  0  0  0  0
   -1.2084   -0.7202   -0.0013 C   0  0  0  0  0  0  0  0  0  0  0  0
    1.2074   -0.7219   -0.0003 C   0  0  0  0  0  0  0  0  0  0  0  0
    1.2085    0.6730   -0.0002 C   0  0  0  0  0  0  0  0  0  0  0  0
   -1.2074    0.6747   -0.0012 C   0  0  0  0  0  0  0  0  0  0  0  0
    0.0010    1.3713   -0.0009 C   0  0  0  0  0  0  0  0  0  0  0  0
   -0.0021   -2.9201    0.0005 C   0  0  0  0  0  0  0  0  0  0  0  0
  1  7  1  0
  2  8  1  0
  3  9  1  0
  4 10  1  0
  5 11  1  0
  6  7  2  0
  6  8  1  0
  6 12  1  0
  7 10  1  0
  8  9  2  0
  9 11  1  0
 10 11  2  0
M  END
>  <PUBCHEM_COMPOUND_CID>  (1) 
6906

>  <PUBCHEM_CONFORMER_RMSD>  (1) 
0.4

>  <PUBCHEM_CONFORMER_DIVERSEORDER>  (1) 
1

>  <PUBCHEM_MMFF94_PARTIAL_CHARGES>  (1) 
12
1 -0.11
10 0.11
11 0.11
12 0.14
2 -0.11
3 -0.11
4 -0.11
5 -0.11
6 -0.14
7 0.11
8 0.11
9 0.11

>  <PUBCHEM_EFFECTIVE_ROTOR_COUNT>  (1) 
0

>  <PUBCHEM_PHARMACOPHORE_FEATURES>  (1) 
6
1 1 hydrophobe
1 2 hydrophobe
1 3 hydrophobe
1 4 hydrophobe
1 5 hydrophobe
6 6 7 8 9 10 11 rings

>  <PUBCHEM_HEAVY_ATOM_COUNT>  (1) 
12

>  <PUBCHEM_ATOM_DEF_STEREO_COUNT>  (1) 
0

>  <PUBCHEM_ATOM_UDEF_STEREO_COUNT>  (1) 
0

>  <PUBCHEM_BOND_DEF_STEREO_COUNT>  (1) 
0

>  <PUBCHEM_BOND_UDEF_STEREO_COUNT>  (1) 
0

>  <PUBCHEM_ISOTOPIC_ATOM_COUNT>  (1) 
0

>  <PUBCHEM_COMPONENT_COUNT>  (1) 
1

>  <PUBCHEM_CACTVS_TAUTO_COUNT>  (1) 
1

>  <PUBCHEM_CONFORMER_ID>  (1) 
00001AFA00000001

>  <PUBCHEM_MMFF94_ENERGY>  (1) 
43.5697

>  <PUBCHEM_FEATURE_SELFOVERLAP>  (1) 
30.45

>  <PUBCHEM_SHAPE_FINGERPRINT>  (1) 
10967382 1 18410575037582157349
13140716 1 18410575041713425866
16945 1 18122626325227286342
193761 8 18410573989446457415
20588541 1 18121784099415582830
21501502 16 18410573989446476903
2334 1 18410855494487900164
23402539 116 18126837424807674014
23526114 1 18410856563940031677
23552423 10 18334295361901310302
23559900 14 18271249293031340822
241688 4 18410856529575064315
2748010 2 18411138034616506814

>  <PUBCHEM_SHAPE_MULTIPOLES>  (1) 
276.67
4.24
3.86
0.67
0
0.82
0
-0.31
0
0
0
0
0.03
0

>  <PUBCHEM_SHAPE_SELFOVERLAP>  (1) 
504.555

>  <PUBCHEM_SHAPE_VOLUME>  (1) 
179.6

>  <PUBCHEM_COORDINATE_TYPE>  (1) 
2
5
10

$$$$
