6918
     RDKit          3D

  8  8  0  0  0  0  0  0  0  0999 V2000
   -2.3771    0.8126   -0.0003 S   0  0  0  0  0  0  0  0  0  0  0  0
    2.0811   -1.1679   -0.0003 O   0  0  0  0  0  0  0  0  0  0  0  0
    2.2110    1.1013    0.0000 O   0  0  0  0  0  0  0  0  0  0  0  0
    0.0707    0.0322    0.0007 C   0  0  0  0  0  0  0  0  0  0  0  0
   -0.7217   -1.1520    0.0003 C   0  0  0  0  0  0  0  0  0  0  0  0
   -0.7029    1.1721    0.0001 C   0  0  0  0  0  0  0  0  0  0  0  0
   -2.0705   -0.8721   -0.0001 C   0  0  0  0  0  0  0  0  0  0  0  0
    1.5092    0.0739   -0.0003 C   0  0  0  0  0  0  0  0  0  0  0  0
  1  6  1  0
  1  7  1  0
  2  8  1  0
  3  8  2  0
  4  5  1  0
  4  6  2  0
  4  8  1  0
  5  7  2  0
M  END
>  <PUBCHEM_COMPOUND_CID>  (1) 
6918

>  <PUBCHEM_CONFORMER_RMSD>  (1) 
0.4

>  <PUBCHEM_CONFORMER_DIVERSEORDER>  (1) 
1
2

>  <PUBCHEM_MMFF94_PARTIAL_CHARGES>  (1) 
12
1 -0.08
10 0.15
11 0.15
12 0.5
2 -0.65
3 -0.57
4 -0.09
5 -0.15
6 -0.11
7 -0.11
8 0.81
9 0.15

>  <PUBCHEM_EFFECTIVE_ROTOR_COUNT>  (1) 
1

>  <PUBCHEM_PHARMACOPHORE_FEATURES>  (1) 
4
1 2 acceptor
1 3 acceptor
3 2 3 8 anion
5 1 4 5 6 7 rings

>  <PUBCHEM_HEAVY_ATOM_COUNT>  (1) 
8

>  <PUBCHEM_ATOM_DEF_STEREO_COUNT>  (1) 
0

>  <PUBCHEM_ATOM_UDEF_STEREO_COUNT>  (1) 
0

>  <PUBCHEM_BOND_DEF_STEREO_COUNT>  (1) 
0

>  <PUBCHEM_BOND_UDEF_STEREO_COUNT>  (1) 
0

>  <PUBCHEM_ISOTOPIC_ATOM_COUNT>  (1) 
0

>  <PUBCHEM_COMPONENT_COUNT>  (1) 
1

>  <PUBCHEM_CACTVS_TAUTO_COUNT>  (1) 
1

>  <PUBCHEM_CONFORMER_ID>  (1) 
00001B0600000001

>  <PUBCHEM_MMFF94_ENERGY>  (1) 
8.3066

>  <PUBCHEM_FEATURE_SELFOVERLAP>  (1) 
20.355

>  <PUBCHEM_SHAPE_FINGERPRINT>  (1) 
12897270 3 18339081608973317716
14325111 11 18410856534318567073
14390081 3 18271241719933054048
16714656 1 18410013230258698965
18185500 45 18194119839782957943
21040471 1 18410856529733384481
23552423 10 18260831496644018870
24536 1 18338501002361765668
29004967 10 18189340232703828267
369184 2 18411134740577037833
5084963 1 18200025127857402137

>  <PUBCHEM_SHAPE_MULTIPOLES>  (1) 
156.75
3.3
1.4
0.6
0.48
0.04
0
-0.22
0
-0.08
0
-0.08
-0.01
0

>  <PUBCHEM_SHAPE_SELFOVERLAP>  (1) 
313.139

>  <PUBCHEM_SHAPE_VOLUME>  (1) 
93.9

>  <PUBCHEM_COORDINATE_TYPE>  (1) 
2
5
10

$$$$
