6924
     RDKit          3D

 11 11  0  0  0  0  0  0  0  0999 V2000
    1.7605    0.2292    0.1072 S   0  0  0  0  0  0  0  0  0  0  0  0
    2.1854    1.4872    0.7019 O   0  0  0  0  0  0  0  0  0  0  0  0
    2.2135   -1.0320    0.6740 O   0  0  0  0  0  0  0  0  0  0  0  0
    2.1344    0.2501   -1.5591 N   0  0  0  0  0  0  0  0  0  0  0  0
    0.0114    0.2124    0.0523 C   0  0  0  0  0  0  0  0  0  0  0  0
   -0.6992   -0.9873    0.0171 C   0  0  0  0  0  0  0  0  0  0  0  0
   -0.6720    1.4284    0.0438 C   0  0  0  0  0  0  0  0  0  0  0  0
   -2.0933   -0.9711   -0.0267 C   0  0  0  0  0  0  0  0  0  0  0  0
    0.0019   -2.3062    0.0248 C   0  0  0  0  0  0  0  0  0  0  0  0
   -2.0661    1.4446    0.0000 C   0  0  0  0  0  0  0  0  0  0  0  0
   -2.7768    0.2448   -0.0353 C   0  0  0  0  0  0  0  0  0  0  0  0
  1  2  2  0
  1  3  2  0
  1  4  1  0
  1  5  1  0
  5  6  2  0
  5  7  1  0
  6  8  1  0
  6  9  1  0
  7 10  2  0
  8 11  2  0
 10 11  1  0
M  END
>  <PUBCHEM_COMPOUND_CID>  (1) 
6924

>  <PUBCHEM_CONFORMER_RMSD>  (1) 
0.4

>  <PUBCHEM_CONFORMER_DIVERSEORDER>  (1) 
1
2

>  <PUBCHEM_MMFF94_PARTIAL_CHARGES>  (1) 
17
1 1.45
10 -0.15
11 -0.15
12 0.15
13 0.15
17 0.15
18 0.15
19 0.42
2 -0.65
20 0.42
3 -0.65
4 -0.98
5 -0.01
6 -0.14
7 -0.15
8 -0.15
9 0.14

>  <PUBCHEM_EFFECTIVE_ROTOR_COUNT>  (1) 
1

>  <PUBCHEM_PHARMACOPHORE_FEATURES>  (1) 
4
1 2 acceptor
1 3 acceptor
1 4 donor
6 5 6 7 8 10 11 rings

>  <PUBCHEM_HEAVY_ATOM_COUNT>  (1) 
11

>  <PUBCHEM_ATOM_DEF_STEREO_COUNT>  (1) 
0

>  <PUBCHEM_ATOM_UDEF_STEREO_COUNT>  (1) 
0

>  <PUBCHEM_BOND_DEF_STEREO_COUNT>  (1) 
0

>  <PUBCHEM_BOND_UDEF_STEREO_COUNT>  (1) 
0

>  <PUBCHEM_ISOTOPIC_ATOM_COUNT>  (1) 
0

>  <PUBCHEM_COMPONENT_COUNT>  (1) 
1

>  <PUBCHEM_CACTVS_TAUTO_COUNT>  (1) 
1

>  <PUBCHEM_CONFORMER_ID>  (1) 
00001B0C00000001

>  <PUBCHEM_MMFF94_ENERGY>  (1) 
13.8736

>  <PUBCHEM_FEATURE_SELFOVERLAP>  (1) 
20.315

>  <PUBCHEM_SHAPE_FINGERPRINT>  (1) 
12524768 44 18129104591945772341
12716758 59 18340217383089075630
12897270 3 18411699868158109981
14325111 11 18410851053745144649
15775835 57 18408608032681075632
16945 1 18270119002892032491
20645464 45 18131066082188103848
20645476 183 17894923974038141079
20871998 184 17912647100761111615
21028194 46 18261954059535131417
21040471 1 18409168822181349543
23552423 10 18188776015861973275
23559900 14 18128543670319812550
241688 4 16898208639053893603
2748010 2 18410853304328905333
369184 2 18341041986729331737
5084963 1 17821724992414582753
66348 1 18410011065326098009

>  <PUBCHEM_SHAPE_MULTIPOLES>  (1) 
213.5
3.6
1.94
0.85
0.03
0.6
0.23
-0.72
0.06
-0.12
-0.17
0.52
-0.07
-0.01

>  <PUBCHEM_SHAPE_SELFOVERLAP>  (1) 
430.684

>  <PUBCHEM_SHAPE_VOLUME>  (1) 
125.9

>  <PUBCHEM_COORDINATE_TYPE>  (1) 
2
5
10

$$$$
