6932
     RDKit          3D

 13 13  0  0  0  0  0  0  0  0999 V2000
    1.2284   -1.7668    0.4171 O   0  0  0  0  0  0  0  0  0  0  0  0
   -3.4579    1.0598   -0.2489 O   0  0  0  0  0  0  0  0  0  0  0  0
    1.4128    1.0583    0.0367 C   0  0  0  0  0  0  0  0  0  0  0  0
    0.0737    0.3029    0.0633 C   0  0  0  0  0  0  0  0  0  0  0  0
    1.2083    2.4965    0.5598 C   0  0  0  0  0  0  0  0  0  0  0  0
    1.9483    1.1158   -1.4106 C   0  0  0  0  0  0  0  0  0  0  0  0
    2.5141    0.4090    0.9051 C   0  0  0  0  0  0  0  0  0  0  0  0
    0.0774   -1.0567    0.2519 C   0  0  0  0  0  0  0  0  0  0  0  0
   -1.0754    1.0362   -0.1060 C   0  0  0  0  0  0  0  0  0  0  0  0
   -1.1459   -1.7268    0.2729 C   0  0  0  0  0  0  0  0  0  0  0  0
   -2.2986    0.3659   -0.0851 C   0  0  0  0  0  0  0  0  0  0  0  0
   -2.3338   -1.0155    0.1043 C   0  0  0  0  0  0  0  0  0  0  0  0
    1.8487   -2.2786   -0.7606 C   0  0  0  0  0  0  0  0  0  0  0  0
  1  8  1  0
  1 13  1  0
  2 11  1  0
  3  4  1  0
  3  5  1  0
  3  6  1  0
  3  7  1  0
  4  8  2  0
  4  9  1  0
  8 10  1  0
  9 11  2  0
 10 12  2  0
 11 12  1  0
M  END
>  <PUBCHEM_COMPOUND_CID>  (1) 
6932

>  <PUBCHEM_CONFORMER_RMSD>  (1) 
0.6

>  <PUBCHEM_CONFORMER_DIVERSEORDER>  (1) 
1

>  <PUBCHEM_MMFF94_PARTIAL_CHARGES>  (1) 
14
1 -0.36
10 -0.15
11 0.08
12 -0.15
13 0.28
2 -0.53
23 0.15
24 0.15
25 0.15
29 0.45
3 0.14
4 -0.14
8 0.08
9 -0.15

>  <PUBCHEM_EFFECTIVE_ROTOR_COUNT>  (1) 
2

>  <PUBCHEM_PHARMACOPHORE_FEATURES>  (1) 
4
1 1 acceptor
1 2 donor
4 3 5 6 7 hydrophobe
6 4 8 9 10 11 12 rings

>  <PUBCHEM_HEAVY_ATOM_COUNT>  (1) 
13

>  <PUBCHEM_ATOM_DEF_STEREO_COUNT>  (1) 
0

>  <PUBCHEM_ATOM_UDEF_STEREO_COUNT>  (1) 
0

>  <PUBCHEM_BOND_DEF_STEREO_COUNT>  (1) 
0

>  <PUBCHEM_BOND_UDEF_STEREO_COUNT>  (1) 
0

>  <PUBCHEM_ISOTOPIC_ATOM_COUNT>  (1) 
0

>  <PUBCHEM_COMPONENT_COUNT>  (1) 
1

>  <PUBCHEM_CACTVS_TAUTO_COUNT>  (1) 
3

>  <PUBCHEM_CONFORMER_ID>  (1) 
00001B1400000001

>  <PUBCHEM_MMFF94_ENERGY>  (1) 
64.4296

>  <PUBCHEM_FEATURE_SELFOVERLAP>  (1) 
20.297

>  <PUBCHEM_SHAPE_FINGERPRINT>  (1) 
1 1 18340766052223548654
12423570 1 11080863156894461587
12524768 44 18408881811239896083
13380535 21 18336846250605697323
13380535 220 17904773171661261852
13380535 76 18337379526440283451
15490181 7 18125442170311533582
15490181 8 18263363753542898923
15775835 57 18261392324846848120
161256 15 18194396689195909300
16945 1 18341054120006564187
17990270 104 18410853256831401851
193761 8 18410292549151641331
20511035 2 18117270574392864274
20588541 1 18409445864862749440
20871998 184 17403464464323475242
21040471 1 18263644137534573905
21501502 16 18335983146657242051
23211744 41 17699286886628901176
2334 1 17906168804136103585
23402539 116 17048788418672462262
23419403 2 14142487339048112171
23463225 33 18261100890251993152
23552423 10 18260832591971572531
23559900 14 18270696359010381620
241688 4 17907017270587880128
2748010 2 18049150077795772765
3071541 158 18116999879425409526
5084963 1 17843134858982344544
53812653 166 18413386553096569416
63268167 104 18339366270931826129
7364860 26 18343018878365489026
81228 2 17545893624496254106

>  <PUBCHEM_SHAPE_MULTIPOLES>  (1) 
255.8
3.82
2.47
0.93
1.96
0.61
-0.17
-0.92
-0.19
-0.89
-0.05
-0.58
-0.08
0.32

>  <PUBCHEM_SHAPE_SELFOVERLAP>  (1) 
529.608

>  <PUBCHEM_SHAPE_VOLUME>  (1) 
148.3

>  <PUBCHEM_COORDINATE_TYPE>  (1) 
2
5
10

$$$$
