6935
     RDKit          3D

 13 13  0  0  0  0  0  0  0  0999 V2000
    3.8789   -0.7223    0.0530 Cl  0  0  0  0  0  0  0  0  0  0  0  0
   -2.2789    0.4318   -0.0814 S   0  0  0  0  0  0  0  0  0  0  0  0
   -2.8293    0.0071    1.3968 O   0  0  0  0  0  0  0  0  0  0  0  0
   -2.4432    1.8716   -0.2014 O   0  0  0  0  0  0  0  0  0  0  0  0
   -2.8635   -0.4694   -1.0602 O   0  0  0  0  0  0  0  0  0  0  0  0
   -0.9681   -2.3196   -0.0162 N   0  0  0  0  0  0  0  0  0  0  0  0
   -0.5619    0.0902   -0.0429 C   0  0  0  0  0  0  0  0  0  0  0  0
    1.7065    0.9213   -0.0116 C   0  0  0  0  0  0  0  0  0  0  0  0
   -0.0824   -1.2193   -0.0150 C   0  0  0  0  0  0  0  0  0  0  0  0
    0.3326    1.1606   -0.0411 C   0  0  0  0  0  0  0  0  0  0  0  0
    1.2915   -1.4586    0.0146 C   0  0  0  0  0  0  0  0  0  0  0  0
    2.1859   -0.3883    0.0163 C   0  0  0  0  0  0  0  0  0  0  0  0
    2.6318    2.0950   -0.0111 C   0  0  0  0  0  0  0  0  0  0  0  0
  1 12  1  0
  2  3  1  0
  2  4  2  0
  2  5  2  0
  2  7  1  0
  6  9  1  0
  7  9  2  0
  7 10  1  0
  8 10  2  0
  8 12  1  0
  8 13  1  0
  9 11  1  0
 11 12  2  0
M  END
>  <PUBCHEM_COMPOUND_CID>  (1) 
6935

>  <PUBCHEM_CONFORMER_RMSD>  (1) 
0.4

>  <PUBCHEM_CONFORMER_DIVERSEORDER>  (1) 
1
2
3

>  <PUBCHEM_MMFF94_PARTIAL_CHARGES>  (1) 
18
1 -0.18
10 -0.15
11 -0.15
12 0.18
13 0.14
14 0.15
15 0.15
19 0.4
2 1.49
20 0.4
21 0.5
3 -0.68
4 -0.65
5 -0.65
6 -0.9
7 -0.01
8 -0.14
9 0.1

>  <PUBCHEM_EFFECTIVE_ROTOR_COUNT>  (1) 
1

>  <PUBCHEM_PHARMACOPHORE_FEATURES>  (1) 
7
1 3 acceptor
1 4 acceptor
1 5 acceptor
1 6 cation
1 6 donor
4 2 3 4 5 anion
6 7 8 9 10 11 12 rings

>  <PUBCHEM_HEAVY_ATOM_COUNT>  (1) 
13

>  <PUBCHEM_ATOM_DEF_STEREO_COUNT>  (1) 
0

>  <PUBCHEM_ATOM_UDEF_STEREO_COUNT>  (1) 
0

>  <PUBCHEM_BOND_DEF_STEREO_COUNT>  (1) 
0

>  <PUBCHEM_BOND_UDEF_STEREO_COUNT>  (1) 
0

>  <PUBCHEM_ISOTOPIC_ATOM_COUNT>  (1) 
0

>  <PUBCHEM_COMPONENT_COUNT>  (1) 
1

>  <PUBCHEM_CACTVS_TAUTO_COUNT>  (1) 
1

>  <PUBCHEM_CONFORMER_ID>  (1) 
00001B1700000001

>  <PUBCHEM_MMFF94_ENERGY>  (1) 
34.8888

>  <PUBCHEM_FEATURE_SELFOVERLAP>  (1) 
35.577

>  <PUBCHEM_SHAPE_FINGERPRINT>  (1) 
11471102 22 18262256433764643681
12032990 46 18266186041426210702
124424 183 17822283531695170994
12932764 1 18343308084310070100
13380535 21 18193570071490336868
13380535 76 18267295607508739870
14325111 11 18410854373554508292
14897335 6 18267858561762624116
14911166 2 18410292484911488686
14993402 34 18410006598882058534
15775835 57 18272656774508256849
16945 1 18410293597065418358
17844478 74 18041293122543963385
18186145 218 18202287995997169744
193761 8 18194119853068760382
20715346 28 17894912974616196797
21040471 1 18410291445223363148
21501502 16 18268148841316718590
2334 1 18122062271889425526
23402539 116 18199174097863843406
23402655 69 18051676773366639541
23559900 14 18270694160150480972
2748010 2 18194124233903818846
5084963 1 18130779058092417673
528886 8 18266452122701724649
63268167 104 18270680844453773729
74978 22 18409727395953531846

>  <PUBCHEM_SHAPE_MULTIPOLES>  (1) 
250.66
5.14
2.07
0.78
0.79
0.07
0.09
0.56
0.11
0.39
-0.06
-0.49
-0.02
-0.05

>  <PUBCHEM_SHAPE_SELFOVERLAP>  (1) 
503.172

>  <PUBCHEM_SHAPE_VOLUME>  (1) 
149.4

>  <PUBCHEM_COORDINATE_TYPE>  (1) 
2
5
10

$$$$
