6939
     RDKit          3D

 15 15  0  0  0  0  0  0  0  0999 V2000
    3.0786    0.5178    0.0748 S   0  0  0  0  0  0  0  0  0  0  0  0
    3.6252    0.1084   -1.4092 O   0  0  0  0  0  0  0  0  0  0  0  0
    3.2188    1.9599    0.1992 O   0  0  0  0  0  0  0  0  0  0  0  0
    3.6855   -0.3767    1.0456 O   0  0  0  0  0  0  0  0  0  0  0  0
   -3.7226    1.5048    0.0076 O   0  0  0  0  0  0  0  0  0  0  0  0
   -2.7427   -0.6393   -0.0186 N   0  0  0  0  0  0  0  0  0  0  0  0
    1.8136   -2.2555    0.0065 N   0  0  0  0  0  0  0  0  0  0  0  0
    1.3672    0.1469    0.0473 C   0  0  0  0  0  0  0  0  0  0  0  0
    0.9097   -1.1705    0.0162 C   0  0  0  0  0  0  0  0  0  0  0  0
   -1.3725   -0.3774    0.0033 C   0  0  0  0  0  0  0  0  0  0  0  0
   -0.4602   -1.4326   -0.0058 C   0  0  0  0  0  0  0  0  0  0  0  0
    0.4548    1.2020    0.0563 C   0  0  0  0  0  0  0  0  0  0  0  0
   -0.9150    0.9399    0.0344 C   0  0  0  0  0  0  0  0  0  0  0  0
   -3.7996    0.2807   -0.0138 C   0  0  0  0  0  0  0  0  0  0  0  0
   -5.1408   -0.4082   -0.0437 C   0  0  0  0  0  0  0  0  0  0  0  0
  1  2  1  0
  1  3  2  0
  1  4  2  0
  1  8  1  0
  5 14  2  0
  6 10  1  0
  6 14  1  0
  7  9  1  0
  8  9  2  0
  8 12  1  0
  9 11  1  0
 10 11  2  0
 10 13  1  0
 12 13  2  0
 14 15  1  0
M  END
>  <PUBCHEM_COMPOUND_CID>  (1) 
6939

>  <PUBCHEM_CONFORMER_RMSD>  (1) 
0.6

>  <PUBCHEM_CONFORMER_DIVERSEORDER>  (1) 
1
2
3
4

>  <PUBCHEM_MMFF94_PARTIAL_CHARGES>  (1) 
22
1 1.49
10 0.12
11 -0.15
12 -0.15
13 -0.15
14 0.57
15 0.06
16 0.15
17 0.15
18 0.15
19 0.37
2 -0.68
20 0.4
21 0.4
22 0.5
3 -0.65
4 -0.65
5 -0.57
6 -0.55
7 -0.9
8 -0.01
9 0.1

>  <PUBCHEM_EFFECTIVE_ROTOR_COUNT>  (1) 
3

>  <PUBCHEM_PHARMACOPHORE_FEATURES>  (1) 
9
1 2 acceptor
1 3 acceptor
1 4 acceptor
1 5 acceptor
1 6 donor
1 7 cation
1 7 donor
4 1 2 3 4 anion
6 8 9 10 11 12 13 rings

>  <PUBCHEM_HEAVY_ATOM_COUNT>  (1) 
15

>  <PUBCHEM_ATOM_DEF_STEREO_COUNT>  (1) 
0

>  <PUBCHEM_ATOM_UDEF_STEREO_COUNT>  (1) 
0

>  <PUBCHEM_BOND_DEF_STEREO_COUNT>  (1) 
0

>  <PUBCHEM_BOND_UDEF_STEREO_COUNT>  (1) 
0

>  <PUBCHEM_ISOTOPIC_ATOM_COUNT>  (1) 
0

>  <PUBCHEM_COMPONENT_COUNT>  (1) 
1

>  <PUBCHEM_CACTVS_TAUTO_COUNT>  (1) 
2

>  <PUBCHEM_CONFORMER_ID>  (1) 
00001B1B00000001

>  <PUBCHEM_MMFF94_ENERGY>  (1) 
43.9452

>  <PUBCHEM_FEATURE_SELFOVERLAP>  (1) 
45.726

>  <PUBCHEM_SHAPE_FINGERPRINT>  (1) 
10608611 8 18336261245942671405
10980938 120 18412263904680397219
11132069 177 18343577460352994712
11471102 20 18410571790433725468
11543360 7 15913038871935641005
12932764 1 17346021325897525497
13380535 76 18409165528131772963
13760787 19 17313390066615543842
14144814 61 18411136914120666033
14251717 144 18411978053147784223
14325111 11 18410854390739496305
14415576 193 18408606971818963316
14576447 43 18129083680525903831
14897335 6 18412541020254811383
14911166 2 18341060678600954030
15219456 202 18262792952700360677
15442244 35 18052539876660557321
15536298 74 18272088245075774455
16945 1 18411984658854828354
17834072 33 18413102884114088127
18186145 218 18413671322339628188
20645476 183 17750811024120261822
20645477 70 17917720080160978134
21267235 1 18411707568976735163
21501502 16 18194970629859949321
23402539 116 18130776867585412724
23402655 69 18341323406625854797
23463225 33 18334288752057177824
23559900 14 18194395598179822850
3071541 37 18334582321604161502
4047638 21 18335984250426732008
449060 62 18341896289973448714
4990 188 17989215832104193982
5104073 3 18336829689507073993
53655031 270 18413386514425792624
537710 114 18410294713556461761
53812653 166 18343295998234870809
633830 44 18343586260741218412
7364860 26 18270399369878522254

>  <PUBCHEM_SHAPE_MULTIPOLES>  (1) 
279.1
8.14
1.7
0.75
6.26
0.22
-0.09
-1.33
-0.17
-0.72
0.06
-0.59
0.01
-0.04

>  <PUBCHEM_SHAPE_SELFOVERLAP>  (1) 
568.609

>  <PUBCHEM_SHAPE_VOLUME>  (1) 
161.6

>  <PUBCHEM_COORDINATE_TYPE>  (1) 
2
5
10

$$$$
