694
     RDKit          3D

  9  9  0  0  0  0  0  0  0  0999 V2000
   -3.6922    0.0661   -0.0006 O   0  0  0  0  0  0  0  0  0  0  0  0
    1.7373   -1.3340   -0.0001 N   0  0  0  0  0  0  0  0  0  0  0  0
   -2.4062   -0.4807   -0.0001 N   0  0  0  0  0  0  0  0  0  0  0  0
   -0.0942    0.2442    0.0003 C   0  0  0  0  0  0  0  0  0  0  0  0
    0.8078    1.3023    0.0001 C   0  0  0  0  0  0  0  0  0  0  0  0
    0.4168   -1.0437    0.0003 C   0  0  0  0  0  0  0  0  0  0  0  0
    2.1741    1.0439   -0.0003 C   0  0  0  0  0  0  0  0  0  0  0  0
    2.5837   -0.2798   -0.0002 C   0  0  0  0  0  0  0  0  0  0  0  0
   -1.5272    0.4817    0.0007 C   0  0  0  0  0  0  0  0  0  0  0  0
  1  3  1  0
  2  6  2  0
  2  8  1  0
  3  9  2  0
  4  5  2  0
  4  6  1  0
  4  9  1  0
  5  7  1  0
  7  8  2  0
M  END
>  <PUBCHEM_COMPOUND_CID>  (1) 
694

>  <PUBCHEM_CONFORMER_RMSD>  (1) 
0.4

>  <PUBCHEM_CONFORMER_DIVERSEORDER>  (1) 
1

>  <PUBCHEM_MMFF94_PARTIAL_CHARGES>  (1) 
15
1 -0.34
10 0.15
11 0.15
12 0.15
13 0.06
14 0.15
15 0.4
2 -0.62
3 -0.51
4 0.09
5 -0.15
6 0.16
7 -0.15
8 0.16
9 0.3

>  <PUBCHEM_EFFECTIVE_ROTOR_COUNT>  (1) 
1

>  <PUBCHEM_PHARMACOPHORE_FEATURES>  (1) 
4
1 1 anion
1 2 acceptor
1 3 acceptor
6 2 4 5 6 7 8 rings

>  <PUBCHEM_HEAVY_ATOM_COUNT>  (1) 
9

>  <PUBCHEM_ATOM_DEF_STEREO_COUNT>  (1) 
0

>  <PUBCHEM_ATOM_UDEF_STEREO_COUNT>  (1) 
0

>  <PUBCHEM_BOND_DEF_STEREO_COUNT>  (1) 
0

>  <PUBCHEM_BOND_UDEF_STEREO_COUNT>  (1) 
1

>  <PUBCHEM_ISOTOPIC_ATOM_COUNT>  (1) 
0

>  <PUBCHEM_COMPONENT_COUNT>  (1) 
1

>  <PUBCHEM_CACTVS_TAUTO_COUNT>  (1) 
2

>  <PUBCHEM_CONFORMER_ID>  (1) 
000002B600000001

>  <PUBCHEM_MMFF94_ENERGY>  (1) 
20.1608

>  <PUBCHEM_FEATURE_SELFOVERLAP>  (1) 
20.297

>  <PUBCHEM_SHAPE_FINGERPRINT>  (1) 
12897270 3 18409167718522512597
12932764 1 17704066317951884465
14325111 11 18410855511926336129
20201158 50 18334576828240652723
20871998 22 17983299231555929470
21040471 1 18194683893943887844
23235685 24 18337104674345321632
23402655 69 18340194225147856797
23552333 60 18343021068978151960
23552423 10 18189342260107791822
29004967 10 18335703827669464744
5084963 1 18412826880319141904

>  <PUBCHEM_SHAPE_MULTIPOLES>  (1) 
169.38
4.33
1.28
0.59
3.7
0.02
0
0.08
0
-0.67
0
-0.05
-0.02
0

>  <PUBCHEM_SHAPE_SELFOVERLAP>  (1) 
347.951

>  <PUBCHEM_SHAPE_VOLUME>  (1) 
97

>  <PUBCHEM_COORDINATE_TYPE>  (1) 
2
5
10

$$$$
