6956
     RDKit          3D

 12 12  0  0  0  0  0  0  0  0999 V2000
    1.5872    1.7687   -1.1195 O   0  0  0  0  0  0  0  0  0  0  0  0
    1.5873   -1.7677    1.1197 O   0  0  0  0  0  0  0  0  0  0  0  0
    1.5950    1.8285    1.1729 N   0  0  0  0  0  0  0  0  0  0  0  0
    1.5952   -1.8294   -1.1726 N   0  0  0  0  0  0  0  0  0  0  0  0
   -0.2008    0.6971   -0.0233 C   0  0  0  0  0  0  0  0  0  0  0  0
   -0.2008   -0.6971    0.0226 C   0  0  0  0  0  0  0  0  0  0  0  0
   -1.4089    1.3941   -0.0459 C   0  0  0  0  0  0  0  0  0  0  0  0
   -1.4089   -1.3941    0.0458 C   0  0  0  0  0  0  0  0  0  0  0  0
   -2.6169    0.6969   -0.0228 C   0  0  0  0  0  0  0  0  0  0  0  0
   -2.6169   -0.6971    0.0231 C   0  0  0  0  0  0  0  0  0  0  0  0
    1.0442    1.4537   -0.0477 C   0  0  0  0  0  0  0  0  0  0  0  0
    1.0443   -1.4537    0.0476 C   0  0  0  0  0  0  0  0  0  0  0  0
  1 11  2  0
  2 12  2  0
  3 11  1  0
  4 12  1  0
  5  6  2  0
  5  7  1  0
  5 11  1  0
  6  8  1  0
  6 12  1  0
  7  9  2  0
  8 10  2  0
  9 10  1  0
M  END
>  <PUBCHEM_COMPOUND_CID>  (1) 
6956

>  <PUBCHEM_CONFORMER_RMSD>  (1) 
0.6

>  <PUBCHEM_CONFORMER_DIVERSEORDER>  (1) 
2
5
7
3
4
6
1

>  <PUBCHEM_MMFF94_PARTIAL_CHARGES>  (1) 
20
1 -0.57
10 -0.15
11 0.54
12 0.54
13 0.15
14 0.15
15 0.15
16 0.15
17 0.37
18 0.37
19 0.37
2 -0.57
20 0.37
3 -0.8
4 -0.8
5 0.09
6 0.09
7 -0.15
8 -0.15
9 -0.15

>  <PUBCHEM_EFFECTIVE_ROTOR_COUNT>  (1) 
2

>  <PUBCHEM_PHARMACOPHORE_FEATURES>  (1) 
5
1 1 acceptor
1 2 acceptor
1 3 donor
1 4 donor
6 5 6 7 8 9 10 rings

>  <PUBCHEM_HEAVY_ATOM_COUNT>  (1) 
12

>  <PUBCHEM_ATOM_DEF_STEREO_COUNT>  (1) 
0

>  <PUBCHEM_ATOM_UDEF_STEREO_COUNT>  (1) 
0

>  <PUBCHEM_BOND_DEF_STEREO_COUNT>  (1) 
0

>  <PUBCHEM_BOND_UDEF_STEREO_COUNT>  (1) 
0

>  <PUBCHEM_ISOTOPIC_ATOM_COUNT>  (1) 
0

>  <PUBCHEM_COMPONENT_COUNT>  (1) 
1

>  <PUBCHEM_CACTVS_TAUTO_COUNT>  (1) 
3

>  <PUBCHEM_CONFORMER_ID>  (1) 
00001B2C00000002

>  <PUBCHEM_MMFF94_ENERGY>  (1) 
43.4317

>  <PUBCHEM_FEATURE_SELFOVERLAP>  (1) 
25.371

>  <PUBCHEM_SHAPE_FINGERPRINT>  (1) 
12423570 1 16310778050592146261
12524768 44 18125997161669527839
14128692 85 18268158569122134679
161256 15 18410303518561009599
16945 1 18407760335075313927
20511035 2 18411693262619702045
20645476 183 16956187493593967908
20653091 64 18335144159060482219
20871998 184 17116921868679921396
21040471 1 17977948208673053513
23552423 10 18333454257112598111
241688 4 18118399545022183361
2748010 2 18408039607171671301
5084963 1 17839480103859434853
7364860 26 18273496775305231491
81228 2 17475236795133594058

>  <PUBCHEM_SHAPE_MULTIPOLES>  (1) 
225.25
3.06
2.38
0.94
1.51
0
0
0
0
-1.26
0
-0.56
0
0.07

>  <PUBCHEM_SHAPE_SELFOVERLAP>  (1) 
476.675

>  <PUBCHEM_SHAPE_VOLUME>  (1) 
126.5

>  <PUBCHEM_COORDINATE_TYPE>  (1) 
2
5
10

$$$$
