6962
     RDKit          3D

 16 16  0  0  0  0  0  0  0  0999 V2000
    3.2232   -0.0972   -0.0874 S   0  0  0  0  0  0  0  0  0  0  0  0
    3.6650   -0.1250    1.4864 O   0  0  0  0  0  0  0  0  0  0  0  0
    3.4209   -1.4424   -0.6074 O   0  0  0  0  0  0  0  0  0  0  0  0
    3.8690    1.0439   -0.7175 O   0  0  0  0  0  0  0  0  0  0  0  0
   -2.0140   -2.0427    1.3011 O   0  0  0  0  0  0  0  0  0  0  0  0
   -2.9260    2.2554    0.5402 O   0  0  0  0  0  0  0  0  0  0  0  0
   -2.1675   -2.2676   -0.9556 O   0  0  0  0  0  0  0  0  0  0  0  0
   -3.5427    0.3430   -0.5223 O   0  0  0  0  0  0  0  0  0  0  0  0
    1.5083    0.2303   -0.0767 C   0  0  0  0  0  0  0  0  0  0  0  0
   -0.7735   -0.5620   -0.0220 C   0  0  0  0  0  0  0  0  0  0  0  0
    0.5965   -0.8244   -0.0303 C   0  0  0  0  0  0  0  0  0  0  0  0
   -1.2317    0.7550   -0.0602 C   0  0  0  0  0  0  0  0  0  0  0  0
    1.0499    1.5472   -0.1149 C   0  0  0  0  0  0  0  0  0  0  0  0
   -0.3200    1.8096   -0.1066 C   0  0  0  0  0  0  0  0  0  0  0  0
   -1.7012   -1.6848    0.0266 C   0  0  0  0  0  0  0  0  0  0  0  0
   -2.6562    1.0617   -0.0534 C   0  0  0  0  0  0  0  0  0  0  0  0
  1  2  1  0
  1  3  2  0
  1  4  2  0
  1  9  1  0
  5 15  1  0
  6 16  1  0
  7 15  2  0
  8 16  2  0
  9 11  2  0
  9 13  1  0
 10 11  1  0
 10 12  2  0
 10 15  1  0
 12 14  1  0
 12 16  1  0
 13 14  2  0
M  END
>  <PUBCHEM_COMPOUND_CID>  (1) 
6962

>  <PUBCHEM_CONFORMER_RMSD>  (1) 
0.6

>  <PUBCHEM_CONFORMER_DIVERSEORDER>  (1) 
1
4
2
3

>  <PUBCHEM_MMFF94_PARTIAL_CHARGES>  (1) 
22
1 1.49
10 0.09
11 -0.15
12 0.09
13 -0.15
14 -0.15
15 0.63
16 0.63
17 0.15
18 0.15
19 0.15
2 -0.68
20 0.5
21 0.5
22 0.5
3 -0.65
4 -0.65
5 -0.65
6 -0.65
7 -0.57
8 -0.57
9 -0.01

>  <PUBCHEM_EFFECTIVE_ROTOR_COUNT>  (1) 
3

>  <PUBCHEM_PHARMACOPHORE_FEATURES>  (1) 
11
1 2 acceptor
1 3 acceptor
1 4 acceptor
1 5 acceptor
1 6 acceptor
1 7 acceptor
1 8 acceptor
3 5 7 15 anion
3 6 8 16 anion
4 1 2 3 4 anion
6 9 10 11 12 13 14 rings

>  <PUBCHEM_HEAVY_ATOM_COUNT>  (1) 
16

>  <PUBCHEM_ATOM_DEF_STEREO_COUNT>  (1) 
0

>  <PUBCHEM_ATOM_UDEF_STEREO_COUNT>  (1) 
0

>  <PUBCHEM_BOND_DEF_STEREO_COUNT>  (1) 
0

>  <PUBCHEM_BOND_UDEF_STEREO_COUNT>  (1) 
0

>  <PUBCHEM_ISOTOPIC_ATOM_COUNT>  (1) 
0

>  <PUBCHEM_COMPONENT_COUNT>  (1) 
1

>  <PUBCHEM_CACTVS_TAUTO_COUNT>  (1) 
1

>  <PUBCHEM_CONFORMER_ID>  (1) 
00001B3200000001

>  <PUBCHEM_MMFF94_ENERGY>  (1) 
42.4014

>  <PUBCHEM_FEATURE_SELFOVERLAP>  (1) 
56

>  <PUBCHEM_SHAPE_FINGERPRINT>  (1) 
11132069 177 18411410687978467184
12553582 1 18051697938385186038
12932764 1 17560804381074691310
13140716 1 18337109063564703616
13296908 3 18342463655564875982
13380535 76 18411135792817917991
13538477 17 18113899347325240328
14993402 34 18335136449673618933
15309172 13 18264778649162347841
15669948 3 18410009957435577734
16945 1 18411982442435614133
18186145 218 18125159338104136524
193761 8 18194685006092861509
20279233 1 17918269857713374602
20524608 308 18272650143041698783
20645476 183 17459211623712590910
20871998 184 18342747342175392063
21501502 16 18336546143770940188
21524375 3 18266176128599344109
2334 1 18192713573043385836
23402539 116 18272639148326263509
23419403 2 16610469096270940205
23463225 33 18334854970570388534
23557571 272 18200606885915594588
23559900 14 18270964549473325694
2748010 2 18267017456409779813
54173680 148 18410015476516227139
69090 78 18343297042275868535
74978 22 18409450305932948956
81228 2 18336259123980738529
9709674 26 18271530801687177910

>  <PUBCHEM_SHAPE_MULTIPOLES>  (1) 
292.04
6.09
2.26
0.9
3.75
0.31
-0.2
-0.17
0.01
-1.7
-0.03
0.22
0.25
-0.14

>  <PUBCHEM_SHAPE_SELFOVERLAP>  (1) 
611.034

>  <PUBCHEM_SHAPE_VOLUME>  (1) 
165.4

>  <PUBCHEM_COORDINATE_TYPE>  (1) 
2
5
10

$$$$
