6965
     RDKit          3D

 25 26  0  0  0  0  0  0  0  0999 V2000
   -6.3654    0.3834    0.9974 N   0  0  0  0  0  0  0  0  0  0  0  0
   -7.1402   -0.8109    0.6815 C   0  0  0  0  0  0  0  0  0  0  0  0
    2.5016    0.6954    0.0933 C   0  0  0  0  0  0  0  0  0  0  0  0
    3.9094    0.8601   -0.4924 C   0  0  0  0  0  0  0  0  0  0  0  0
    1.3532    1.2176   -0.7761 C   0  0  0  0  0  0  0  0  0  0  0  0
    5.0527    0.2778    0.3455 C   0  0  0  0  0  0  0  0  0  0  0  0
   -0.0332    0.9728   -0.1715 C   0  0  0  0  0  0  0  0  0  0  0  0
    6.4215    0.3861   -0.3307 C   0  0  0  0  0  0  0  0  0  0  0  0
   -1.1659    1.5164   -1.0518 C   0  0  0  0  0  0  0  0  0  0  0  0
   -4.4744   -0.2723   -0.3973 C   0  0  0  0  0  0  0  0  0  0  0  0
   -5.1025    0.6313    0.4831 C   0  0  0  0  0  0  0  0  0  0  0  0
    7.5450   -0.2694    0.4810 C   0  0  0  0  0  0  0  0  0  0  0  0
   -6.4096   -1.7341   -0.2658 C   0  0  0  0  0  0  0  0  0  0  0  0
   -2.5424    1.2099   -0.5136 C   0  0  0  0  0  0  0  0  0  0  0  0
   -5.1860   -1.5125   -0.7767 C   0  0  0  0  0  0  0  0  0  0  0  0
    8.9174   -0.1424   -0.1882 C   0  0  0  0  0  0  0  0  0  0  0  0
   -3.1925    0.0327   -0.8870 C   0  0  0  0  0  0  0  0  0  0  0  0
   -7.4254   -1.5518    1.9949 C   0  0  0  0  0  0  0  0  0  0  0  0
   -8.4600   -0.3629    0.0390 C   0  0  0  0  0  0  0  0  0  0  0  0
   -4.4327    1.8116    0.8480 C   0  0  0  0  0  0  0  0  0  0  0  0
   10.0371   -0.8469    0.5832 C   0  0  0  0  0  0  0  0  0  0  0  0
   -3.1621    2.0997    0.3541 C   0  0  0  0  0  0  0  0  0  0  0  0
   -4.5456   -2.4961   -1.7125 C   0  0  0  0  0  0  0  0  0  0  0  0
   11.4103   -0.6950   -0.0720 C   0  0  0  0  0  0  0  0  0  0  0  0
   12.4898   -1.4006    0.7346 C   0  0  0  0  0  0  0  0  0  0  0  0
  1  2  1  0
  1 11  1  0
  2 13  1  0
  2 18  1  0
  2 19  1  0
  3  4  1  0
  3  5  1  0
  4  6  1  0
  5  7  1  0
  6  8  1  0
  7  9  1  0
  8 12  1  0
  9 14  1  0
 10 11  2  0
 10 15  1  0
 10 17  1  0
 11 20  1  0
 12 16  1  0
 13 15  2  0
 14 17  2  0
 14 22  1  0
 15 23  1  0
 16 21  1  0
 20 22  2  0
 21 24  1  0
 24 25  1  0
M  END
>  <PUBCHEM_COMPOUND_CID>  (1) 
6965

>  <PUBCHEM_CONFORMER_RMSD>  (1) 
1.2

>  <PUBCHEM_CONFORMER_DIVERSEORDER>  (1) 
2
150
10
168
152
138
95
29
21
15
117
25
132
178
139
156
22
160
75
43
77
46
182
154
185
26
151
66
162
97
76
58
103
36
90
13
68
169
134
70
17
176
137
122
101
141
59
92
146
86
4
78
79
133
69
148
60
32
147
104
39
47
110
153
11
72
61
179
181
28
102
159
161
14
40
73
183
112
53
100
16
172
55
7
120
96
38
3
175
67
177
118
45
136
113
19
8
174
56
135
12
91
124
82
74
64
24
6
142
127
65
173
9
44
170
63
35
62
125
33
42
80
87
186
50
105
165
94
34
5
123
126
49
143
114
99
85
106
89
107
180
128
189
158
37
52
57
83
20
18
54
31
81
130
27
145
157
164
131
30
111
109
121
119
184
155
71
144
129
140
187
116
93
167
163
108
115
188
23
171
41
88
51
149
166
84
48
98
1

>  <PUBCHEM_MMFF94_PARTIAL_CHARGES>  (1) 
17
1 -0.87
10 0.03
11 0.1
13 -0.29
14 -0.14
15 -0.17
17 -0.15
2 0.51
20 -0.15
22 -0.15
23 0.14
42 0.4
43 0.15
46 0.15
53 0.15
56 0.15
9 0.14

>  <PUBCHEM_EFFECTIVE_ROTOR_COUNT>  (1) 
11.4

>  <PUBCHEM_PHARMACOPHORE_FEATURES>  (1) 
6
1 1 cation
1 1 donor
1 25 hydrophobe
3 2 18 19 hydrophobe
6 1 2 10 11 13 15 rings
6 10 11 14 17 20 22 rings

>  <PUBCHEM_HEAVY_ATOM_COUNT>  (1) 
25

>  <PUBCHEM_ATOM_DEF_STEREO_COUNT>  (1) 
0

>  <PUBCHEM_ATOM_UDEF_STEREO_COUNT>  (1) 
0

>  <PUBCHEM_BOND_DEF_STEREO_COUNT>  (1) 
0

>  <PUBCHEM_BOND_UDEF_STEREO_COUNT>  (1) 
0

>  <PUBCHEM_ISOTOPIC_ATOM_COUNT>  (1) 
0

>  <PUBCHEM_COMPONENT_COUNT>  (1) 
1

>  <PUBCHEM_CACTVS_TAUTO_COUNT>  (1) 
1

>  <PUBCHEM_CONFORMER_ID>  (1) 
00001B3500000002

>  <PUBCHEM_MMFF94_ENERGY>  (1) 
43.8997

>  <PUBCHEM_FEATURE_SELFOVERLAP>  (1) 
30.47

>  <PUBCHEM_SHAPE_FINGERPRINT>  (1) 
10 15 16845291674181961260
10299344 5 18410294726984754276
10533779 47 16773518777722959422
12498461 61 18131064956764812951
12559415 141 18201168672841448870
13165054 27 11815355754320068507
13383668 90 15791728651323652107
13553643 46 13973954395619567130
13668630 136 17023184968018020777
13974486 27 17410226010159463718
14202775 3 18187087214412674626
14251764 46 18333731308784729196
14344974 52 11170206371096608940
150020 25 13551195498706258148
15247644 1 18040436586455644434
15461852 350 13551195506330874049
15510794 2 17704075067332841644
155225 1 10879995757080849194
15716309 27 18410012169365172077
1754911 235 10809346638292475810
1818759 1 18187083958304600642
21026386 114 16877655735571163826
21095086 128 18113899347958314520
21150785 3 14779263124716974268
21362267 20 18343578552399678630
21362267 313 11527954423236338188
21792961 116 18187080673028977525
21895431 317 17749662980427924914
232437 2 18408604748355024426
23528940 14 18411980286420697066
246663 6 18334859420367646756
3178227 256 16845572024894962332
335507 130 18341896294954036780
44389302 135 18201717328869090046
54039377 194 17894914052674087295
57828716 57 16517676882831055875
57828716 8 17989199383656629311
59520647 208 17632022923408933718
59521270 166 16588300558363969557
59521506 201 15192505637486962659
59584819 82 18337669815297540799
636775 8 17240206546732034658
67123 10 18409166611576341692
9953998 17 17418093234892633157

>  <PUBCHEM_SHAPE_MULTIPOLES>  (1) 
509.51
41.17
1.98
1.2
137.61
0.29
-0.1
24.44
-11.56
-3.08
0.24
-2.05
0.44
-1.27

>  <PUBCHEM_SHAPE_SELFOVERLAP>  (1) 
1014.907

>  <PUBCHEM_SHAPE_VOLUME>  (1) 
302.6

>  <PUBCHEM_COORDINATE_TYPE>  (1) 
2
5
10

$$$$
