6995
     RDKit          3D

  9  9  0  0  0  0  0  0  0  0999 V2000
    0.9519   -2.3320    0.1087 Cl  0  0  0  0  0  0  0  0  0  0  0  0
    1.8899    0.5725    0.5376 C   0  0  0  0  0  0  0  0  0  0  0  0
    0.4388    0.3396    0.2672 C   0  0  0  0  0  0  0  0  0  0  0  0
   -0.0707   -0.9425    0.0615 C   0  0  0  0  0  0  0  0  0  0  0  0
   -0.4123    1.4438    0.2219 C   0  0  0  0  0  0  0  0  0  0  0  0
    2.6889    0.7891   -0.7436 C   0  0  0  0  0  0  0  0  0  0  0  0
   -1.4313   -1.1204   -0.1895 C   0  0  0  0  0  0  0  0  0  0  0  0
   -1.7728    1.2660   -0.0290 C   0  0  0  0  0  0  0  0  0  0  0  0
   -2.2823   -0.0161   -0.2348 C   0  0  0  0  0  0  0  0  0  0  0  0
  1  4  1  0
  2  3  1  0
  2  6  1  0
  3  4  2  0
  3  5  1  0
  4  7  1  0
  5  8  2  0
  7  9  2  0
  8  9  1  0
M  END
>  <PUBCHEM_COMPOUND_CID>  (1) 
6995

>  <PUBCHEM_CONFORMER_RMSD>  (1) 
0.4

>  <PUBCHEM_CONFORMER_DIVERSEORDER>  (1) 
1
3
2

>  <PUBCHEM_MMFF94_PARTIAL_CHARGES>  (1) 
12
1 -0.18
12 0.15
16 0.15
17 0.15
18 0.15
2 0.14
3 -0.14
4 0.18
5 -0.15
7 -0.15
8 -0.15
9 -0.15

>  <PUBCHEM_EFFECTIVE_ROTOR_COUNT>  (1) 
1

>  <PUBCHEM_PHARMACOPHORE_FEATURES>  (1) 
2
1 6 hydrophobe
6 3 4 5 7 8 9 rings

>  <PUBCHEM_HEAVY_ATOM_COUNT>  (1) 
9

>  <PUBCHEM_ATOM_DEF_STEREO_COUNT>  (1) 
0

>  <PUBCHEM_ATOM_UDEF_STEREO_COUNT>  (1) 
0

>  <PUBCHEM_BOND_DEF_STEREO_COUNT>  (1) 
0

>  <PUBCHEM_BOND_UDEF_STEREO_COUNT>  (1) 
0

>  <PUBCHEM_ISOTOPIC_ATOM_COUNT>  (1) 
0

>  <PUBCHEM_COMPONENT_COUNT>  (1) 
1

>  <PUBCHEM_CACTVS_TAUTO_COUNT>  (1) 
1

>  <PUBCHEM_CONFORMER_ID>  (1) 
00001B5300000001

>  <PUBCHEM_MMFF94_ENERGY>  (1) 
18.4948

>  <PUBCHEM_FEATURE_SELFOVERLAP>  (1) 
10.148

>  <PUBCHEM_SHAPE_FINGERPRINT>  (1) 
12423570 1 12534256132401500059
12716758 59 18267871755938983224
12897270 3 18411135857089388204
14128692 85 17983571901559292478
16714656 1 18338801246229593276
16945 1 18411974788993640881
20645464 45 17844797273672563696
21040471 1 18411693266534939161
23235685 24 18408038533002748141
23552423 10 18263925440696943815
241688 4 16898206439930450226
2748010 2 17834383902072085005
5084963 1 18059016218911902136

>  <PUBCHEM_SHAPE_MULTIPOLES>  (1) 
187.09
3.1
2.03
0.74
0.63
1.05
0.03
-0.86
0.54
0.31
-0.06
0.21
-0.07
-0.19

>  <PUBCHEM_SHAPE_SELFOVERLAP>  (1) 
372.82

>  <PUBCHEM_SHAPE_VOLUME>  (1) 
108.6

>  <PUBCHEM_COORDINATE_TYPE>  (1) 
2
5
10

$$$$
