7015
     RDKit          3D

 13 14  0  0  0  0  0  0  0  0999 V2000
    0.7947   -2.2527    0.0006 N   0  0  0  0  0  0  0  0  0  0  0  0
    0.6560    0.1908    0.0002 C   0  0  0  0  0  0  0  0  0  0  0  0
   -0.7903    0.1531    0.0004 C   0  0  0  0  0  0  0  0  0  0  0  0
    1.4145   -0.9820    0.0002 C   0  0  0  0  0  0  0  0  0  0  0  0
    1.2979    1.4311    0.0000 C   0  0  0  0  0  0  0  0  0  0  0  0
   -1.4871    0.1348   -1.2078 C   0  0  0  0  0  0  0  0  0  0  0  0
   -1.4878    0.1356    1.2081 C   0  0  0  0  0  0  0  0  0  0  0  0
    2.8076   -0.9148    0.0000 C   0  0  0  0  0  0  0  0  0  0  0  0
    2.6911    1.4983   -0.0003 C   0  0  0  0  0  0  0  0  0  0  0  0
    3.4460    0.3254   -0.0002 C   0  0  0  0  0  0  0  0  0  0  0  0
   -2.8815    0.0991   -1.2083 C   0  0  0  0  0  0  0  0  0  0  0  0
   -2.8822    0.0999    1.2077 C   0  0  0  0  0  0  0  0  0  0  0  0
   -3.5790    0.0815   -0.0005 C   0  0  0  0  0  0  0  0  0  0  0  0
  1  4  1  0
  2  3  1  0
  2  4  2  0
  2  5  1  0
  3  6  2  0
  3  7  1  0
  4  8  1  0
  5  9  2  0
  6 11  1  0
  7 12  2  0
  8 10  2  0
  9 10  1  0
 11 13  2  0
 12 13  1  0
M  END
>  <PUBCHEM_COMPOUND_CID>  (1) 
7015

>  <PUBCHEM_CONFORMER_RMSD>  (1) 
0.4

>  <PUBCHEM_CONFORMER_DIVERSEORDER>  (1) 
1
2

>  <PUBCHEM_MMFF94_PARTIAL_CHARGES>  (1) 
22
1 -0.9
10 -0.15
11 -0.15
12 -0.15
13 -0.15
14 0.15
15 0.15
16 0.15
17 0.15
18 0.15
19 0.15
20 0.15
21 0.15
22 0.15
23 0.4
24 0.4
4 0.1
5 -0.15
6 -0.15
7 -0.15
8 -0.15
9 -0.15

>  <PUBCHEM_EFFECTIVE_ROTOR_COUNT>  (1) 
1

>  <PUBCHEM_PHARMACOPHORE_FEATURES>  (1) 
4
1 1 cation
1 1 donor
6 2 4 5 8 9 10 rings
6 3 6 7 11 12 13 rings

>  <PUBCHEM_HEAVY_ATOM_COUNT>  (1) 
13

>  <PUBCHEM_ATOM_DEF_STEREO_COUNT>  (1) 
0

>  <PUBCHEM_ATOM_UDEF_STEREO_COUNT>  (1) 
0

>  <PUBCHEM_BOND_DEF_STEREO_COUNT>  (1) 
0

>  <PUBCHEM_BOND_UDEF_STEREO_COUNT>  (1) 
0

>  <PUBCHEM_ISOTOPIC_ATOM_COUNT>  (1) 
0

>  <PUBCHEM_COMPONENT_COUNT>  (1) 
1

>  <PUBCHEM_CACTVS_TAUTO_COUNT>  (1) 
1

>  <PUBCHEM_CONFORMER_ID>  (1) 
00001B6700000001

>  <PUBCHEM_MMFF94_ENERGY>  (1) 
52.6547

>  <PUBCHEM_FEATURE_SELFOVERLAP>  (1) 
20.297

>  <PUBCHEM_SHAPE_FINGERPRINT>  (1) 
10219947 1 18408041814452629868
10608611 8 17967245399411647229
107287 299 18187654604190394502
11031198 65 18334298677563218172
11471102 20 18409444769572216564
11578080 2 12542365125082773798
12236239 1 17775849012259787849
124424 183 17385994057934588584
12932764 1 17749106694691265979
13538477 17 17417804067587329855
13581323 91 15068621595477443169
14144814 61 17847062181378152817
14251717 144 18411978057210643038
14993402 34 17846498136181768972
15219456 202 17967249793099536357
15279307 12 17918272052072775095
15309172 13 18408606989019749474
15775835 57 17917715720479125784
16945 1 18410856542750070726
17844478 74 17895198791973713861
18175812 5 17676489474999218567
18186145 218 18343586269594864300
19049666 15 17605547748003916733
19422 9 17704075092232421383
200 152 18343575253240893029
20201158 50 18113617854757275371
20279233 1 17748543744922343955
204376 136 18265331888500557480
20645464 45 17530682113222719705
20645477 70 18337944589538895615
20715346 28 17821731666778072913
21639500 275 18340477980129858348
21730867 7 18333452044998699294
23236772 104 17775566455098992371
23402539 116 16732972155084422687
23557571 272 17022907830710177519
23559900 14 16588017971138623602
23728640 28 15165444168603189883
2748010 2 18193566781550740834
474 4 17701524345890131912
528886 8 18412259562499862800
57812782 119 17603580841765730929
63268167 104 18343579655223837600
77492 1 17703790318726030401
8272917 22 18199475363986426927

>  <PUBCHEM_SHAPE_MULTIPOLES>  (1) 
262.55
5.79
1.41
1.07
0.75
0.4
0
-0.63
0
-1.22
0
1
-0.06
0

>  <PUBCHEM_SHAPE_SELFOVERLAP>  (1) 
571.702

>  <PUBCHEM_SHAPE_VOLUME>  (1) 
141.7

>  <PUBCHEM_COORDINATE_TYPE>  (1) 
2
5
10

$$$$
