7049
     RDKit          3D

 12 12  0  0  0  0  0  0  0  0999 V2000
    1.8461    0.2946    0.0914 S   0  0  0  0  0  0  0  0  0  0  0  0
    2.2720   -0.1743   -1.4146 O   0  0  0  0  0  0  0  0  0  0  0  0
    2.4313    1.6076    0.3116 O   0  0  0  0  0  0  0  0  0  0  0  0
    2.1167   -0.8044    1.0029 O   0  0  0  0  0  0  0  0  0  0  0  0
   -0.7942   -2.9814    0.2344 O   0  0  0  0  0  0  0  0  0  0  0  0
    0.1068    0.4862    0.0333 C   0  0  0  0  0  0  0  0  0  0  0  0
   -0.7415   -0.6148   -0.0854 C   0  0  0  0  0  0  0  0  0  0  0  0
   -0.4270    1.7728    0.1090 C   0  0  0  0  0  0  0  0  0  0  0  0
   -2.1233   -0.4291   -0.1285 C   0  0  0  0  0  0  0  0  0  0  0  0
   -1.8087    1.9584    0.0660 C   0  0  0  0  0  0  0  0  0  0  0  0
   -2.6568    0.8575   -0.0527 C   0  0  0  0  0  0  0  0  0  0  0  0
   -0.2215   -1.9733   -0.1673 C   0  0  0  0  0  0  0  0  0  0  0  0
  1  2  1  0
  1  3  2  0
  1  4  2  0
  1  6  1  0
  5 12  2  0
  6  7  2  0
  6  8  1  0
  7  9  1  0
  7 12  1  0
  8 10  2  0
  9 11  2  0
 10 11  1  0
M  END
>  <PUBCHEM_COMPOUND_CID>  (1) 
7049

>  <PUBCHEM_CONFORMER_RMSD>  (1) 
0.6

>  <PUBCHEM_CONFORMER_DIVERSEORDER>  (1) 
1
2

>  <PUBCHEM_MMFF94_PARTIAL_CHARGES>  (1) 
18
1 1.49
10 -0.15
11 -0.15
12 0.42
13 0.15
14 0.15
15 0.15
16 0.15
17 0.06
18 0.5
2 -0.68
3 -0.65
4 -0.65
5 -0.57
6 -0.01
7 0.09
8 -0.15
9 -0.15

>  <PUBCHEM_EFFECTIVE_ROTOR_COUNT>  (1) 
2

>  <PUBCHEM_PHARMACOPHORE_FEATURES>  (1) 
6
1 2 acceptor
1 3 acceptor
1 4 acceptor
1 5 acceptor
4 1 2 3 4 anion
6 6 7 8 9 10 11 rings

>  <PUBCHEM_HEAVY_ATOM_COUNT>  (1) 
12

>  <PUBCHEM_ATOM_DEF_STEREO_COUNT>  (1) 
0

>  <PUBCHEM_ATOM_UDEF_STEREO_COUNT>  (1) 
0

>  <PUBCHEM_BOND_DEF_STEREO_COUNT>  (1) 
0

>  <PUBCHEM_BOND_UDEF_STEREO_COUNT>  (1) 
0

>  <PUBCHEM_ISOTOPIC_ATOM_COUNT>  (1) 
0

>  <PUBCHEM_COMPONENT_COUNT>  (1) 
1

>  <PUBCHEM_CACTVS_TAUTO_COUNT>  (1) 
1

>  <PUBCHEM_CONFORMER_ID>  (1) 
00001B8900000001

>  <PUBCHEM_MMFF94_ENERGY>  (1) 
25.2836

>  <PUBCHEM_FEATURE_SELFOVERLAP>  (1) 
30.503

>  <PUBCHEM_SHAPE_FINGERPRINT>  (1) 
1 1 18194114114707525543
12423570 1 15233762516614527551
12524768 44 18200315557698487172
12716758 59 18340215162648908430
15775835 57 18261396589923400804
16945 1 18263362658447551257
193761 8 17545880890129068369
20645476 183 17968390003779393839
20871998 184 17912929666627672118
20871998 22 17619363433608630774
21040471 1 18410573967987406228
22802520 49 18128839558394216238
23552423 10 17904768773862540527
23559900 14 18200040522075544694
241688 4 16609132712743183977
2748010 2 18410573998337260805
5084963 1 17988926613232967400
66348 1 18409729556010825913
7364860 26 17766272077188044167
81228 2 18194687196568133795

>  <PUBCHEM_SHAPE_MULTIPOLES>  (1) 
227.33
3.41
2.5
0.8
0.4
1.43
0.12
-1.24
0.09
-0.42
-0.23
0.44
0.03
-0.02

>  <PUBCHEM_SHAPE_SELFOVERLAP>  (1) 
465.477

>  <PUBCHEM_SHAPE_VOLUME>  (1) 
131

>  <PUBCHEM_COORDINATE_TYPE>  (1) 
2
5
10

$$$$
