7067
     RDKit          3D

 13 13  0  0  1  0  0  0  0  0999 V2000
    3.1906   -0.7442   -1.4353 O   0  0  0  0  0  0  0  0  0  0  0  0
    1.1975    0.3544    0.2381 N   0  0  0  0  0  0  0  0  0  0  0  0
    2.2422   -0.5110    0.7482 C   0  0  0  0  0  0  0  0  0  0  0  0
   -0.1402   -0.0908    0.1935 C   0  0  0  0  0  0  0  0  0  0  0  0
    1.5424    1.6880   -0.2126 C   0  0  0  0  0  0  0  0  0  0  0  0
   -1.1410    0.7536   -0.2873 C   0  0  0  0  0  0  0  0  0  0  0  0
    2.7036   -1.4851   -0.3241 C   0  0  0  0  0  0  0  0  0  0  0  0
   -0.4620   -1.3761    0.6296 C   0  0  0  0  0  0  0  0  0  0  0  0
   -2.4637    0.3130   -0.3316 C   0  0  0  0  0  0  0  0  0  0  0  0
    1.4351    2.6717    0.9367 C   0  0  0  0  0  0  0  0  0  0  0  0
   -1.7848   -1.8169    0.5849 C   0  0  0  0  0  0  0  0  0  0  0  0
   -2.7856   -0.9723    0.1045 C   0  0  0  0  0  0  0  0  0  0  0  0
   -3.5340    1.2155   -0.8446 C   0  0  0  0  0  0  0  0  0  0  0  0
  1  7  1  0
  2  3  1  0
  2  4  1  0
  2  5  1  0
  3  7  1  0
  4  6  2  0
  4  8  1  0
  5 10  1  0
  6  9  1  0
  8 11  2  0
  9 12  2  0
  9 13  1  0
 11 12  1  0
M  END
>  <PUBCHEM_COMPOUND_CID>  (1) 
7067

>  <PUBCHEM_CONFORMER_RMSD>  (1) 
0.6

>  <PUBCHEM_CONFORMER_DIVERSEORDER>  (1) 
4
53
69
51
15
29
66
10
57
19
25
59
61
35
55
46
23
49
67
31
58
68
43
34
39
44
42
26
47
11
8
52
14
38
60
6
21
22
64
37
28
24
48
9
33
63
32
16
41
17
54
18
13
62
50
30
40
56
1
7
20
65
12
36
5
27
45
2
3

>  <PUBCHEM_MMFF94_PARTIAL_CHARGES>  (1) 
17
1 -0.68
11 -0.15
12 -0.15
13 0.14
18 0.15
2 -0.84
21 0.15
25 0.15
26 0.15
3 0.37
30 0.4
4 0.1
5 0.37
6 -0.15
7 0.28
8 -0.15
9 -0.14

>  <PUBCHEM_EFFECTIVE_ROTOR_COUNT>  (1) 
4

>  <PUBCHEM_PHARMACOPHORE_FEATURES>  (1) 
4
1 1 acceptor
1 1 donor
1 2 cation
6 4 6 8 9 11 12 rings

>  <PUBCHEM_HEAVY_ATOM_COUNT>  (1) 
13

>  <PUBCHEM_ATOM_DEF_STEREO_COUNT>  (1) 
0

>  <PUBCHEM_ATOM_UDEF_STEREO_COUNT>  (1) 
0

>  <PUBCHEM_BOND_DEF_STEREO_COUNT>  (1) 
0

>  <PUBCHEM_BOND_UDEF_STEREO_COUNT>  (1) 
0

>  <PUBCHEM_ISOTOPIC_ATOM_COUNT>  (1) 
0

>  <PUBCHEM_COMPONENT_COUNT>  (1) 
1

>  <PUBCHEM_CACTVS_TAUTO_COUNT>  (1) 
1

>  <PUBCHEM_CONFORMER_ID>  (1) 
00001B9B00000004

>  <PUBCHEM_MMFF94_ENERGY>  (1) 
41.062

>  <PUBCHEM_FEATURE_SELFOVERLAP>  (1) 
20.297

>  <PUBCHEM_SHAPE_FINGERPRINT>  (1) 
10465860 71 18339096899362879406
10608611 8 18336819913592165497
12524768 44 18191865832488009811
12716758 59 18333728048503612035
12932764 1 18186521024966494243
13380535 21 18263655128466784153
13380535 76 18048865579262163336
14648413 74 18338512044675451536
14911166 2 18336542703565121447
15219456 202 18339079409807630792
15279308 100 18333729104717400813
15775835 57 17749671792254942183
161256 15 18191877935526553866
16945 1 18337386041921365867
17041 50 18413392016458227316
17990270 104 18340203093732933722
18186145 218 18337380570460266813
18380122 1 17904765835825361443
19973954 147 18336542832430113825
20201158 50 18341331102442624310
20233049 118 18042959883303027916
20645476 183 17458354004511459587
20653085 51 18409730660286809155
20711985 344 17697336018410359446
20871998 184 17400643121786759811
21501502 16 18263920102131436953
21524375 3 17477197697229539984
22802520 49 18337394936756294801
2334 1 18190456245886138169
23552423 10 18041278888821968747
25 1 18117834396409282405
2748010 2 18261668294023203141
4663303 62 18201158879254774584
6049 1 18262808478901660155
7364860 26 18199470037900016736
74978 22 18411700989091735763
81228 2 17911810072265654536

>  <PUBCHEM_SHAPE_MULTIPOLES>  (1) 
256.68
5.1
2.31
0.98
0.99
0.93
0.12
-0.27
1.43
-0.69
-0.47
-0.43
0.02
1.06

>  <PUBCHEM_SHAPE_SELFOVERLAP>  (1) 
515.685

>  <PUBCHEM_SHAPE_VOLUME>  (1) 
152.3

>  <PUBCHEM_COORDINATE_TYPE>  (1) 
2
5
10

$$$$
