7068
     RDKit          3D

 44 49  0  0  0  0  0  0  0  0999 V2000
    3.4405    2.1718   -0.8767 O   0  0  0  0  0  0  0  0  0  0  0  0
   -3.4130   -1.8986    1.6438 O   0  0  0  0  0  0  0  0  0  0  0  0
    7.7936   -3.0678   -0.4667 O   0  0  0  0  0  0  0  0  0  0  0  0
   -7.2554   -1.5688   -2.2783 O   0  0  0  0  0  0  0  0  0  0  0  0
    5.4748   -2.2761    0.5245 O   0  0  0  0  0  0  0  0  0  0  0  0
   -5.4484    1.2466   -1.8099 O   0  0  0  0  0  0  0  0  0  0  0  0
    4.9275   -0.0998   -0.1608 N   0  0  0  0  0  0  0  0  0  0  0  0
   -4.8905   -0.2955   -0.1257 N   0  0  0  0  0  0  0  0  0  0  0  0
    0.7417   -0.1784   -0.1427 C   0  0  0  0  0  0  0  0  0  0  0  0
   -0.7047   -0.2113   -0.1349 C   0  0  0  0  0  0  0  0  0  0  0  0
    3.5111   -0.1163   -0.1590 C   0  0  0  0  0  0  0  0  0  0  0  0
   -3.4937   -0.2755   -0.1216 C   0  0  0  0  0  0  0  0  0  0  0  0
    1.4112    0.9895   -0.5084 C   0  0  0  0  0  0  0  0  0  0  0  0
   -1.3790   -1.0451    0.7572 C   0  0  0  0  0  0  0  0  0  0  0  0
    2.8057    1.0206   -0.5164 C   0  0  0  0  0  0  0  0  0  0  0  0
   -2.7735   -1.0770    0.7641 C   0  0  0  0  0  0  0  0  0  0  0  0
    7.2280   -0.8082    0.0965 C   0  0  0  0  0  0  0  0  0  0  0  0
   -7.2078    0.2206   -0.6861 C   0  0  0  0  0  0  0  0  0  0  0  0
    8.9919    0.8561    0.2888 C   0  0  0  0  0  0  0  0  0  0  0  0
   -9.2015    0.8540    0.5048 C   0  0  0  0  0  0  0  0  0  0  0  0
    1.4667   -1.3151    0.2148 C   0  0  0  0  0  0  0  0  0  0  0  0
   -1.4250    0.5904   -1.0205 C   0  0  0  0  0  0  0  0  0  0  0  0
    9.9513   -0.1342   -0.0304 C   0  0  0  0  0  0  0  0  0  0  0  0
   -9.9137   -0.1580   -0.1819 C   0  0  0  0  0  0  0  0  0  0  0  0
    2.8613   -1.2840    0.2066 C   0  0  0  0  0  0  0  0  0  0  0  0
   -2.8195    0.5581   -1.0139 C   0  0  0  0  0  0  0  0  0  0  0  0
    7.6340    0.5026    0.3482 C   0  0  0  0  0  0  0  0  0  0  0  0
   -7.8342    1.0325    0.2386 C   0  0  0  0  0  0  0  0  0  0  0  0
    8.1714   -1.7820   -0.2176 C   0  0  0  0  0  0  0  0  0  0  0  0
   -7.8789   -0.7702   -1.3665 C   0  0  0  0  0  0  0  0  0  0  0  0
    5.8107   -1.1366    0.1671 C   0  0  0  0  0  0  0  0  0  0  0  0
   -5.7598    0.4401   -0.9403 C   0  0  0  0  0  0  0  0  0  0  0  0
    9.5245   -1.4484   -0.2811 C   0  0  0  0  0  0  0  0  0  0  0  0
   -9.2376   -0.9616   -1.1143 C   0  0  0  0  0  0  0  0  0  0  0  0
    9.4188    2.1704    0.5395 C   0  0  0  0  0  0  0  0  0  0  0  0
   -9.8777    1.6576    1.4373 C   0  0  0  0  0  0  0  0  0  0  0  0
   11.3092    0.2192   -0.0902 C   0  0  0  0  0  0  0  0  0  0  0  0
  -11.2810   -0.3369    0.0845 C   0  0  0  0  0  0  0  0  0  0  0  0
   10.7722    2.5034    0.4762 C   0  0  0  0  0  0  0  0  0  0  0  0
  -11.2365    1.4662    1.6890 C   0  0  0  0  0  0  0  0  0  0  0  0
   11.7155    1.5299    0.1618 C   0  0  0  0  0  0  0  0  0  0  0  0
  -11.9368    0.4707    1.0140 C   0  0  0  0  0  0  0  0  0  0  0  0
    3.7406    3.0987    0.1644 C   0  0  0  0  0  0  0  0  0  0  0  0
   -3.7341   -1.3538    2.9219 C   0  0  0  0  0  0  0  0  0  0  0  0
  1 15  1  0
  1 43  1  0
  2 16  1  0
  2 44  1  0
  3 29  1  0
  4 30  1  0
  5 31  2  0
  6 32  2  0
  7 11  1  0
  7 31  1  0
  8 12  1  0
  8 32  1  0
  9 10  1  0
  9 13  2  0
  9 21  1  0
 10 14  2  0
 10 22  1  0
 11 15  2  0
 11 25  1  0
 12 16  2  0
 12 26  1  0
 13 15  1  0
 14 16  1  0
 17 27  2  0
 17 29  1  0
 17 31  1  0
 18 28  2  0
 18 30  1  0
 18 32  1  0
 19 23  2  0
 19 27  1  0
 19 35  1  0
 20 24  2  0
 20 28  1  0
 20 36  1  0
 21 25  2  0
 22 26  2  0
 23 33  1  0
 23 37  1  0
 24 34  1  0
 24 38  1  0
 29 33  2  0
 30 34  2  0
 35 39  2  0
 36 40  2  0
 37 41  2  0
 38 42  2  0
 39 41  1  0
 40 42  1  0
M  END
>  <PUBCHEM_COMPOUND_CID>  (1) 
7068

>  <PUBCHEM_CONFORMER_RMSD>  (1) 
1.2

>  <PUBCHEM_CONFORMER_DIVERSEORDER>  (1) 
3
2
16
23
14
17
6
20
19
24
11
7
13
21
12
22
15
26
5
18
9
8
10
1
4
25

>  <PUBCHEM_MMFF94_PARTIAL_CHARGES>  (1) 
60
1 -0.36
11 0.12
12 0.12
13 -0.15
14 -0.15
15 0.08
16 0.08
17 0.09
18 0.09
2 -0.36
21 -0.15
22 -0.15
25 -0.15
26 -0.15
27 -0.15
28 -0.15
29 0.08
3 -0.53
30 0.08
31 0.54
32 0.54
33 -0.15
34 -0.15
35 -0.15
36 -0.15
37 -0.15
38 -0.15
39 -0.15
4 -0.53
40 -0.15
41 -0.15
42 -0.15
43 0.28
44 0.28
45 0.15
46 0.15
47 0.15
48 0.15
49 0.15
5 -0.57
50 0.15
51 0.15
52 0.15
53 0.37
54 0.37
55 0.15
56 0.15
57 0.15
58 0.15
59 0.15
6 -0.57
60 0.15
61 0.15
62 0.15
63 0.15
64 0.15
65 0.45
66 0.45
7 -0.55
8 -0.55

>  <PUBCHEM_EFFECTIVE_ROTOR_COUNT>  (1) 
9

>  <PUBCHEM_PHARMACOPHORE_FEATURES>  (1) 
14
1 1 acceptor
1 2 acceptor
1 3 donor
1 4 donor
1 5 acceptor
1 6 acceptor
1 7 donor
1 8 donor
6 10 12 14 16 22 26 rings
6 17 19 23 27 29 33 rings
6 18 20 24 28 30 34 rings
6 19 23 35 37 39 41 rings
6 20 24 36 38 40 42 rings
6 9 11 13 15 21 25 rings

>  <PUBCHEM_HEAVY_ATOM_COUNT>  (1) 
44

>  <PUBCHEM_ATOM_DEF_STEREO_COUNT>  (1) 
0

>  <PUBCHEM_ATOM_UDEF_STEREO_COUNT>  (1) 
0

>  <PUBCHEM_BOND_DEF_STEREO_COUNT>  (1) 
0

>  <PUBCHEM_BOND_UDEF_STEREO_COUNT>  (1) 
0

>  <PUBCHEM_ISOTOPIC_ATOM_COUNT>  (1) 
0

>  <PUBCHEM_COMPONENT_COUNT>  (1) 
1

>  <PUBCHEM_CACTVS_TAUTO_COUNT>  (1) 
22

>  <PUBCHEM_CONFORMER_ID>  (1) 
00001B9C00000003

>  <PUBCHEM_MMFF94_ENERGY>  (1) 
183.7182

>  <PUBCHEM_FEATURE_SELFOVERLAP>  (1) 
71.105

>  <PUBCHEM_SHAPE_FINGERPRINT>  (1) 
10168742 298 15410903981206459796
10580692 12 18334011683442917989
11061554 47 18114177518992663444
12089408 11 18060696186848616799
12144603 126 18131630084287349438
12522641 33 17490151902356680326
12559415 86 16486986059074715089
12664476 115 18259702298598191717
13947947 74 17822291266699071552
14040221 8 17131836456142782536
15061470 23 18201719540011836705
15247644 1 13840263680526789200
15347591 1 18119251915578502734
15510794 2 18260547827814914794
16728433 110 18186518812942669396
20105231 36 14707209928941997617
232437 2 18413387622538190358
249057 3 17167865274409820079
3092352 35 18201718471435444223
4625314 4 10663806494955855196
4874694 18 17748824120936716122
5028188 123 18060415834002991831
5381727 24 12973603335182629897
6201320 215 12540956479126830191
67123 10 18341890797100641494

>  <PUBCHEM_SHAPE_MULTIPOLES>  (1) 
860.32
53.04
2.26
1.39
5.08
0.37
-0.38
13.84
-6.25
-4.97
-0.27
4.07
-0.26
-0.85

>  <PUBCHEM_SHAPE_SELFOVERLAP>  (1) 
1932.797

>  <PUBCHEM_SHAPE_VOLUME>  (1) 
452.6

>  <PUBCHEM_COORDINATE_TYPE>  (1) 
2
5
10

$$$$
