7075
     RDKit          3D

 14 15  0  0  0  0  0  0  0  0999 V2000
    3.0564   -1.9870   -0.0013 O   0  0  0  0  0  0  0  0  0  0  0  0
    4.2499    0.5234    0.0013 O   0  0  0  0  0  0  0  0  0  0  0  0
    0.1123    0.1797   -0.0009 C   0  0  0  0  0  0  0  0  0  0  0  0
   -1.3300    0.0646   -0.0006 C   0  0  0  0  0  0  0  0  0  0  0  0
    0.9036   -0.9690   -0.0015 C   0  0  0  0  0  0  0  0  0  0  0  0
    0.7112    1.4393    0.0003 C   0  0  0  0  0  0  0  0  0  0  0  0
   -2.0243    0.0074    1.2078 C   0  0  0  0  0  0  0  0  0  0  0  0
   -2.0260    0.0104   -1.2082 C   0  0  0  0  0  0  0  0  0  0  0  0
    2.2940   -0.8579   -0.0008 C   0  0  0  0  0  0  0  0  0  0  0  0
    2.1017    1.5504    0.0012 C   0  0  0  0  0  0  0  0  0  0  0  0
    2.8931    0.4017    0.0006 C   0  0  0  0  0  0  0  0  0  0  0  0
   -3.4148   -0.1040    1.2086 C   0  0  0  0  0  0  0  0  0  0  0  0
   -3.4164   -0.1009   -1.2074 C   0  0  0  0  0  0  0  0  0  0  0  0
   -4.1108   -0.1581    0.0010 C   0  0  0  0  0  0  0  0  0  0  0  0
  1  9  1  0
  2 11  1  0
  3  4  1  0
  3  5  2  0
  3  6  1  0
  4  7  2  0
  4  8  1  0
  5  9  1  0
  6 10  2  0
  7 12  1  0
  8 13  2  0
  9 11  2  0
 10 11  1  0
 12 14  2  0
 13 14  1  0
M  END
>  <PUBCHEM_COMPOUND_CID>  (1) 
7075

>  <PUBCHEM_CONFORMER_RMSD>  (1) 
0.4

>  <PUBCHEM_CONFORMER_DIVERSEORDER>  (1) 
1
2

>  <PUBCHEM_MMFF94_PARTIAL_CHARGES>  (1) 
22
1 -0.53
10 -0.15
11 0.08
12 -0.15
13 -0.15
14 -0.15
15 0.15
16 0.15
17 0.15
18 0.15
19 0.15
2 -0.53
20 0.15
21 0.15
22 0.15
23 0.45
24 0.45
5 -0.15
6 -0.15
7 -0.15
8 -0.15
9 0.08

>  <PUBCHEM_EFFECTIVE_ROTOR_COUNT>  (1) 
1

>  <PUBCHEM_PHARMACOPHORE_FEATURES>  (1) 
4
1 1 donor
1 2 donor
6 3 5 6 9 10 11 rings
6 4 7 8 12 13 14 rings

>  <PUBCHEM_HEAVY_ATOM_COUNT>  (1) 
14

>  <PUBCHEM_ATOM_DEF_STEREO_COUNT>  (1) 
0

>  <PUBCHEM_ATOM_UDEF_STEREO_COUNT>  (1) 
0

>  <PUBCHEM_BOND_DEF_STEREO_COUNT>  (1) 
0

>  <PUBCHEM_BOND_UDEF_STEREO_COUNT>  (1) 
0

>  <PUBCHEM_ISOTOPIC_ATOM_COUNT>  (1) 
0

>  <PUBCHEM_COMPONENT_COUNT>  (1) 
1

>  <PUBCHEM_CACTVS_TAUTO_COUNT>  (1) 
10

>  <PUBCHEM_CONFORMER_ID>  (1) 
00001BA300000001

>  <PUBCHEM_MMFF94_ENERGY>  (1) 
42.4909

>  <PUBCHEM_FEATURE_SELFOVERLAP>  (1) 
20.302

>  <PUBCHEM_SHAPE_FINGERPRINT>  (1) 
10219947 1 18413390925457471230
10608611 8 17894343402087183397
11471102 20 18409448094161694732
12236239 1 17703792530913730217
124424 183 17531236271066921288
12932764 1 17775280564785300537
13296908 3 17967533449972419923
13538477 17 17418086659255608991
13581323 91 15140954084596916033
14144814 61 17989489619237111399
14251717 144 18411978065895588094
14576447 43 18129930308120026959
14993402 34 17989204862694461780
15219456 202 17967813847001860621
15309172 13 18412266155243266847
15375462 189 17988926677704878448
15653759 3 17167861980349115361
15669948 3 16486967440602262861
15775835 57 17561088011787316057
16945 1 18410855490588747140
17844478 74 17967254195662684445
18175812 5 17603867853134621365
18186145 218 18341897393732584079
19049666 15 17677603173125551669
19422 9 17775005678367549743
200 152 18271801341877248893
20201158 50 18114181938487039395
20279233 1 17748827423175189931
204376 136 18194117641340269400
20645477 70 18337382743123160871
20715346 28 17749391498541807465
20871998 22 18056204566402142358
21639500 275 18268140027727614925
21730867 7 18261112988853196778
2255824 54 18272370918812441444
23402539 116 16081077212591761559
23402655 69 18412538791335570645
23557571 272 16877660153883825765
23559900 14 16950556641493209634
2748010 2 18194392295887600812
474 4 17771894193768863416
57812782 119 17821444668679024487
581208 293 18411696612646687608
77492 1 17703791431344067173

>  <PUBCHEM_SHAPE_MULTIPOLES>  (1) 
276.37
7.22
1.3
1.04
0.53
0.12
0
0.55
0
-1.47
0
1.17
0.01
0

>  <PUBCHEM_SHAPE_SELFOVERLAP>  (1) 
604.23

>  <PUBCHEM_SHAPE_VOLUME>  (1) 
151

>  <PUBCHEM_COORDINATE_TYPE>  (1) 
2
5
10

$$$$
