7077
     RDKit          3D

 19 20  0  0  0  0  0  0  0  0999 V2000
   -1.1170    0.1811    0.5581 O   0  0  0  0  0  0  0  0  0  0  0  0
   -4.4148   -1.1258   -0.4434 N   0  0  0  0  0  0  0  0  0  0  0  0
    0.6897    1.2595   -0.5904 C   0  0  0  0  0  0  0  0  0  0  0  0
    1.0531   -0.0082   -1.2904 C   0  0  0  0  0  0  0  0  0  0  0  0
   -2.9840   -1.1409   -0.1403 C   0  0  0  0  0  0  0  0  0  0  0  0
   -0.3759    1.3051    0.3023 C   0  0  0  0  0  0  0  0  0  0  0  0
   -2.5048    0.2462    0.2568 C   0  0  0  0  0  0  0  0  0  0  0  0
    2.0582   -0.8569   -0.5392 C   0  0  0  0  0  0  0  0  0  0  0  0
    1.4334    2.4131   -0.8389 C   0  0  0  0  0  0  0  0  0  0  0  0
   -0.7063    2.4913    0.9495 C   0  0  0  0  0  0  0  0  0  0  0  0
    1.1072    3.6058   -0.1933 C   0  0  0  0  0  0  0  0  0  0  0  0
    1.6025   -1.8049    0.3593 C   0  0  0  0  0  0  0  0  0  0  0  0
    3.4087   -0.6638   -0.7687 C   0  0  0  0  0  0  0  0  0  0  0  0
    0.0375    3.6449    0.7009 C   0  0  0  0  0  0  0  0  0  0  0  0
   -5.1767   -0.6509    0.7110 C   0  0  0  0  0  0  0  0  0  0  0  0
   -4.8670   -2.4584   -0.8414 C   0  0  0  0  0  0  0  0  0  0  0  0
    2.5281   -2.5861    1.0513 C   0  0  0  0  0  0  0  0  0  0  0  0
    4.3343   -1.4450   -0.0767 C   0  0  0  0  0  0  0  0  0  0  0  0
    3.8939   -2.4060    0.8334 C   0  0  0  0  0  0  0  0  0  0  0  0
  1  6  1  0
  1  7  1  0
  2  5  1  0
  2 15  1  0
  2 16  1  0
  3  4  1  0
  3  6  2  0
  3  9  1  0
  4  8  1  0
  5  7  1  0
  6 10  1  0
  8 12  2  0
  8 13  1  0
  9 11  2  0
 10 14  2  0
 11 14  1  0
 12 17  1  0
 13 18  2  0
 17 19  2  0
 18 19  1  0
M  END
>  <PUBCHEM_COMPOUND_CID>  (1) 
7077

>  <PUBCHEM_CONFORMER_RMSD>  (1) 
0.8

>  <PUBCHEM_CONFORMER_DIVERSEORDER>  (1) 
2
26
60
7
69
70
9
65
23
48
44
18
57
61
50
73
51
55
33
24
17
5
62
6
41
56
15
11
34
28
19
16
72
67
25
8
29
45
27
63
71
58
39
59
52
12
3
30
40
4
1
32
21
20
22
14
38
43
64
47
37
53
46
49
68
35
10
66
42
36
31
13
54

>  <PUBCHEM_MMFF94_PARTIAL_CHARGES>  (1) 
28
1 -0.36
10 -0.15
11 -0.15
12 -0.15
13 -0.15
14 -0.15
15 0.27
16 0.27
17 -0.15
18 -0.15
19 -0.15
2 -0.81
26 0.15
27 0.15
28 0.15
29 0.15
3 -0.14
30 0.15
31 0.15
38 0.15
39 0.15
4 0.29
40 0.15
5 0.27
6 0.08
7 0.28
8 -0.14
9 -0.15

>  <PUBCHEM_EFFECTIVE_ROTOR_COUNT>  (1) 
6

>  <PUBCHEM_PHARMACOPHORE_FEATURES>  (1) 
4
1 1 acceptor
1 2 cation
6 3 6 9 10 11 14 rings
6 8 12 13 17 18 19 rings

>  <PUBCHEM_HEAVY_ATOM_COUNT>  (1) 
19

>  <PUBCHEM_ATOM_DEF_STEREO_COUNT>  (1) 
0

>  <PUBCHEM_ATOM_UDEF_STEREO_COUNT>  (1) 
0

>  <PUBCHEM_BOND_DEF_STEREO_COUNT>  (1) 
0

>  <PUBCHEM_BOND_UDEF_STEREO_COUNT>  (1) 
0

>  <PUBCHEM_ISOTOPIC_ATOM_COUNT>  (1) 
0

>  <PUBCHEM_COMPONENT_COUNT>  (1) 
1

>  <PUBCHEM_CACTVS_TAUTO_COUNT>  (1) 
1

>  <PUBCHEM_CONFORMER_ID>  (1) 
00001BA500000002

>  <PUBCHEM_MMFF94_ENERGY>  (1) 
58.1175

>  <PUBCHEM_FEATURE_SELFOVERLAP>  (1) 
20.297

>  <PUBCHEM_SHAPE_FINGERPRINT>  (1) 
1100329 8 18122625213516506966
11045515 52 18188207602657267773
11265709 11 18410860919137109649
11552529 35 17908700636228847554
11578080 2 18041549257203786964
12107183 9 18270412603378993971
12553582 1 18339096894793845435
12633257 1 18200888331212837895
12730499 353 17904772425028074755
12788726 201 18266474104534249737
13004483 165 18265884766143921995
13083527 12 18411975884337187680
13533116 47 18195527224275135435
13955234 65 18124033700722860801
14100547 121 17327447030640022562
14787075 74 18336272331585331668
15042514 8 18050855411909278417
15375462 189 18335712623773172755
20291156 8 18410575050472483415
20369508 70 18410291458451357943
20567600 347 17617366720729635259
20567600 70 18336824311559802410
20626108 58 17988356074689791903
20645477 70 18190454064317116851
20832881 197 18333452015514281267
21250096 35 18409445860794862811
21421861 104 18269293355701766161
21452121 199 18412821404183248025
22112679 90 18197242281023253528
2255824 54 18267872859513366015
23419403 2 18190434165348889964
257057 1 18337954493501455652
314173 41 18411427223676786663
463206 1 18334297569631305459
6443956 14 18409728486527429216
7364860 26 18268148841132186681
7471813 234 18411979165348966375
81228 2 17981620272714886049

>  <PUBCHEM_SHAPE_MULTIPOLES>  (1) 
380.16
8.48
4.36
1.08
9.25
3.75
0.04
-10.31
0.09
-1.34
-0.74
-0.17
-0.07
-1.57

>  <PUBCHEM_SHAPE_SELFOVERLAP>  (1) 
793.958

>  <PUBCHEM_SHAPE_VOLUME>  (1) 
216.9

>  <PUBCHEM_COORDINATE_TYPE>  (1) 
2
5
10

$$$$
