7082
     RDKit          3D

 18 20  0  0  0  0  0  0  0  0999 V2000
    1.5996    2.0276   -0.0034 S   0  0  0  0  0  0  0  0  0  0  0  0
   -4.9296    0.4022    0.0031 F   0  0  0  0  0  0  0  0  0  0  0  0
   -4.1639   -1.3115   -1.0835 F   0  0  0  0  0  0  0  0  0  0  0  0
   -4.1409   -1.3075    1.0909 F   0  0  0  0  0  0  0  0  0  0  0  0
    0.9740   -1.0343   -0.0052 N   0  0  0  0  0  0  0  0  0  0  0  0
   -0.1351   -0.1740   -0.0039 C   0  0  0  0  0  0  0  0  0  0  0  0
    0.0066    1.2226   -0.0023 C   0  0  0  0  0  0  0  0  0  0  0  0
    2.3317   -0.6780   -0.0025 C   0  0  0  0  0  0  0  0  0  0  0  0
    2.7491    0.6622   -0.0011 C   0  0  0  0  0  0  0  0  0  0  0  0
   -1.4276   -0.7260   -0.0031 C   0  0  0  0  0  0  0  0  0  0  0  0
   -2.5576    0.0911   -0.0002 C   0  0  0  0  0  0  0  0  0  0  0  0
   -1.1362    2.0377    0.0007 C   0  0  0  0  0  0  0  0  0  0  0  0
   -2.4115    1.4735    0.0018 C   0  0  0  0  0  0  0  0  0  0  0  0
    3.3041   -1.6927   -0.0011 C   0  0  0  0  0  0  0  0  0  0  0  0
    4.1200    0.9636    0.0025 C   0  0  0  0  0  0  0  0  0  0  0  0
   -3.9188   -0.5169    0.0004 C   0  0  0  0  0  0  0  0  0  0  0  0
    4.6641   -1.3843    0.0023 C   0  0  0  0  0  0  0  0  0  0  0  0
    5.0719   -0.0554    0.0047 C   0  0  0  0  0  0  0  0  0  0  0  0
  1  7  1  0
  1  9  1  0
  2 16  1  0
  3 16  1  0
  4 16  1  0
  5  6  1  0
  5  8  1  0
  6  7  2  0
  6 10  1  0
  7 12  1  0
  8  9  2  0
  8 14  1  0
  9 15  1  0
 10 11  2  0
 11 13  1  0
 11 16  1  0
 12 13  2  0
 14 17  2  0
 15 18  2  0
 17 18  1  0
M  END
>  <PUBCHEM_COMPOUND_CID>  (1) 
7082

>  <PUBCHEM_CONFORMER_RMSD>  (1) 
0.6

>  <PUBCHEM_CONFORMER_DIVERSEORDER>  (1) 
1

>  <PUBCHEM_MMFF94_PARTIAL_CHARGES>  (1) 
26
1 -0.2
10 -0.15
11 -0.14
12 -0.15
13 -0.15
14 -0.15
15 -0.15
16 1.16
17 -0.15
18 -0.15
19 0.4
2 -0.34
20 0.15
21 0.15
22 0.15
23 0.15
24 0.15
25 0.15
26 0.15
3 -0.34
4 -0.34
5 -0.6
6 0.1
7 0.1
8 0.1
9 0.1

>  <PUBCHEM_EFFECTIVE_ROTOR_COUNT>  (1) 
1.4

>  <PUBCHEM_PHARMACOPHORE_FEATURES>  (1) 
5
1 5 cation
1 5 donor
6 1 5 6 7 8 9 rings
6 6 7 10 11 12 13 rings
6 8 9 14 15 17 18 rings

>  <PUBCHEM_HEAVY_ATOM_COUNT>  (1) 
18

>  <PUBCHEM_ATOM_DEF_STEREO_COUNT>  (1) 
0

>  <PUBCHEM_ATOM_UDEF_STEREO_COUNT>  (1) 
0

>  <PUBCHEM_BOND_DEF_STEREO_COUNT>  (1) 
0

>  <PUBCHEM_BOND_UDEF_STEREO_COUNT>  (1) 
0

>  <PUBCHEM_ISOTOPIC_ATOM_COUNT>  (1) 
0

>  <PUBCHEM_COMPONENT_COUNT>  (1) 
1

>  <PUBCHEM_CACTVS_TAUTO_COUNT>  (1) 
1

>  <PUBCHEM_CONFORMER_ID>  (1) 
00001BAA00000001

>  <PUBCHEM_MMFF94_ENERGY>  (1) 
48.7098

>  <PUBCHEM_FEATURE_SELFOVERLAP>  (1) 
25.402

>  <PUBCHEM_SHAPE_FINGERPRINT>  (1) 
10967382 1 18410855507858261124
11471102 20 18409447012003976972
11543360 7 15502667030240405058
11806522 49 18409166619158629812
12032990 46 18408606967449967465
12107183 9 17619913851031690106
12236239 1 17846218886530750423
12403259 226 18338791226709734312
13140716 1 18050843622593283784
13167823 11 18412543193487105742
13288520 33 18412547574553960956
13544653 18 18409452487623094633
13583140 156 14764344899596331179
13690532 89 18409729556195539628
138480 1 14735917726393016364
13862211 1 18410849971555979670
14115302 16 17676779746322321398
14251764 18 18272376361163850625
14252887 29 17918000451679077534
15196674 1 18410573946992870980
15536298 74 18342455950351316288
17357779 13 17968078837794194621
17492 89 18266740177938442314
17802600 8 18410570682696387256
18186145 218 17458057188269659497
18522853 276 18413107247326223952
19141452 34 18201720665430249391
200 152 18272928328210480709
20261772 1 18059853991143694022
20510252 161 18272089344750984888
20645477 70 18334855073259259038
21029758 11 18412542111076355865
21267235 1 18411145706092982518
221490 88 18262806288172933553
22646028 1 18273210906577087591
22646028 28 18410575067662603268
23402539 116 18413382133654232759
23557571 272 18272094833814134516
23559900 14 18335699464172732480
26918003 58 18187364337273256179
2871803 45 18260825977848238466
335352 9 18410856525876449405
4214541 1 18338798909883721088
465052 167 18343308101521646543
4921388 177 16081381786166139937
5104073 3 18339922615426058920
5283173 99 18043518439795588973
5374978 207 18409725154133467528
537710 114 18410860975441501212
542803 24 12973884801527220743
602551 16 15410321286433180358
69090 78 18342173379915417030
7364860 26 18340767169348146904
77779 3 18411139100106090712
8809292 202 18187651339899458603
9709674 26 18410300168545086590

>  <PUBCHEM_SHAPE_MULTIPOLES>  (1) 
347.48
10.07
1.97
0.69
0.92
0.51
0
-3.52
-0.01
-0.27
0
0.31
-0.1
0

>  <PUBCHEM_SHAPE_SELFOVERLAP>  (1) 
755.825

>  <PUBCHEM_SHAPE_VOLUME>  (1) 
191.9

>  <PUBCHEM_COORDINATE_TYPE>  (1) 
2
5
10

$$$$
