709
     RDKit          3D

 14 14  0  0  0  0  0  0  0  0999 V2000
    3.1708   -1.3681    0.3120 O   0  0  0  0  0  0  0  0  0  0  0  0
    3.7602    1.3305    0.0017 O   0  0  0  0  0  0  0  0  0  0  0  0
   -4.8810    0.6517   -0.5944 O   0  0  0  0  0  0  0  0  0  0  0  0
   -4.2989   -1.3099    0.4144 O   0  0  0  0  0  0  0  0  0  0  0  0
   -0.1897    0.0655    0.1922 C   0  0  0  0  0  0  0  0  0  0  0  0
    2.1711   -0.4471    0.2208 C   0  0  0  0  0  0  0  0  0  0  0  0
    0.8428   -0.8679    0.2842 C   0  0  0  0  0  0  0  0  0  0  0  0
    0.1062    1.4198    0.0367 C   0  0  0  0  0  0  0  0  0  0  0  0
    2.4670    0.9071    0.0653 C   0  0  0  0  0  0  0  0  0  0  0  0
    1.4346    1.8406   -0.0266 C   0  0  0  0  0  0  0  0  0  0  0  0
   -1.5748   -0.3731    0.2584 C   0  0  0  0  0  0  0  0  0  0  0  0
   -2.6394    0.3306   -0.1869 C   0  0  0  0  0  0  0  0  0  0  0  0
    3.6310   -1.9478   -0.9071 C   0  0  0  0  0  0  0  0  0  0  0  0
   -3.9997   -0.2319   -0.0706 C   0  0  0  0  0  0  0  0  0  0  0  0
  1  6  1  0
  1 13  1  0
  2  9  1  0
  3 14  1  0
  4 14  2  0
  5  7  2  0
  5  8  1  0
  5 11  1  0
  6  7  1  0
  6  9  2  0
  8 10  2  0
  9 10  1  0
 11 12  2  0
 12 14  1  0
M  END
>  <PUBCHEM_COMPOUND_CID>  (1) 
709

>  <PUBCHEM_CONFORMER_RMSD>  (1) 
0.6

>  <PUBCHEM_CONFORMER_DIVERSEORDER>  (1) 
1
4
3
2

>  <PUBCHEM_MMFF94_PARTIAL_CHARGES>  (1) 
21
1 -0.36
10 -0.15
11 -0.18
12 -0.14
13 0.28
14 0.71
15 0.15
16 0.15
17 0.15
18 0.15
19 0.15
2 -0.53
23 0.45
24 0.5
3 -0.65
4 -0.57
5 0.03
6 0.08
7 -0.15
8 -0.15
9 0.08

>  <PUBCHEM_EFFECTIVE_ROTOR_COUNT>  (1) 
3

>  <PUBCHEM_PHARMACOPHORE_FEATURES>  (1) 
6
1 1 acceptor
1 2 donor
1 3 acceptor
1 4 acceptor
3 3 4 14 anion
6 5 6 7 8 9 10 rings

>  <PUBCHEM_HEAVY_ATOM_COUNT>  (1) 
14

>  <PUBCHEM_ATOM_DEF_STEREO_COUNT>  (1) 
0

>  <PUBCHEM_ATOM_UDEF_STEREO_COUNT>  (1) 
0

>  <PUBCHEM_BOND_DEF_STEREO_COUNT>  (1) 
0

>  <PUBCHEM_BOND_UDEF_STEREO_COUNT>  (1) 
1

>  <PUBCHEM_ISOTOPIC_ATOM_COUNT>  (1) 
0

>  <PUBCHEM_COMPONENT_COUNT>  (1) 
1

>  <PUBCHEM_CACTVS_TAUTO_COUNT>  (1) 
3

>  <PUBCHEM_CONFORMER_ID>  (1) 
000002C500000001

>  <PUBCHEM_MMFF94_ENERGY>  (1) 
46.3458

>  <PUBCHEM_FEATURE_SELFOVERLAP>  (1) 
30.501

>  <PUBCHEM_SHAPE_FINGERPRINT>  (1) 
10219947 1 18272933816925483911
10608611 8 18261105327080186973
11471102 20 18409443691582891445
116883 192 18197783202131553340
12032990 46 18410859828173419747
12346645 6 18271806843614349564
12616999 72 18261399991806226028
12932764 1 17346308332486398753
13296908 3 18408039606865768035
13571099 22 18412545405294873985
14251717 144 18411698785626021146
14252887 29 18343302552824625306
14325111 11 18335699477221008697
14576447 43 18057593472672933599
15442244 35 18340772520412888393
15477762 27 18411419548253191308
15536298 74 18412824685537976192
16945 1 18339934826102639104
17834072 8 18336262337017059901
17834074 16 18261114131662969227
18186145 218 17968090906973769507
19422 9 18272939301704131617
200 152 18130782374445454157
20279233 1 17821732762015696425
20339313 130 18343022172726750450
20606313 2 18409164428551326408
20645477 70 18412542098333878887
20671657 53 18338521824532093246
20871998 22 18270681940229830638
21501925 9 18340478985463045954
221490 88 18263652916664349267
22485316 2 18413103987598793191
23402539 116 17241312677025771773
23402655 69 18411132546149689917
23559900 14 18408601453054870386
2748010 2 18263095455948053658
4463277 69 17345195497849115110
4990 188 18333452032050701763
5104073 3 18409729569381031913
522135 26 18411699880847748557
633830 44 18113332012252492287
7364860 26 18272369802321443616
77779 3 18408886256915941937
9709674 26 18262522618885140315

>  <PUBCHEM_SHAPE_MULTIPOLES>  (1) 
264.64
8.35
1.79
0.71
7.92
0.01
0.05
-2.14
1.11
-1.78
0.17
-0.07
-0.12
0.58

>  <PUBCHEM_SHAPE_SELFOVERLAP>  (1) 
550.842

>  <PUBCHEM_SHAPE_VOLUME>  (1) 
151

>  <PUBCHEM_COORDINATE_TYPE>  (1) 
2
5
10

$$$$
