7091
     RDKit          3D

 12 13  0  0  0  0  0  0  0  0999 V2000
   -3.0053    1.3878    0.0004 O   0  0  0  0  0  0  0  0  0  0  0  0
   -3.0048   -1.3881   -0.0010 O   0  0  0  0  0  0  0  0  0  0  0  0
    0.6010    0.7077    0.0001 C   0  0  0  0  0  0  0  0  0  0  0  0
    0.6010   -0.7076    0.0003 C   0  0  0  0  0  0  0  0  0  0  0  0
   -0.6240    1.3944    0.0000 C   0  0  0  0  0  0  0  0  0  0  0  0
   -0.6241   -1.3943    0.0005 C   0  0  0  0  0  0  0  0  0  0  0  0
    1.8261    1.3945   -0.0003 C   0  0  0  0  0  0  0  0  0  0  0  0
    1.8260   -1.3944    0.0003 C   0  0  0  0  0  0  0  0  0  0  0  0
   -1.8317    0.6959    0.0000 C   0  0  0  0  0  0  0  0  0  0  0  0
   -1.8317   -0.6958    0.0002 C   0  0  0  0  0  0  0  0  0  0  0  0
    3.0338    0.6958   -0.0004 C   0  0  0  0  0  0  0  0  0  0  0  0
    3.0337   -0.6960   -0.0001 C   0  0  0  0  0  0  0  0  0  0  0  0
  1  9  1  0
  2 10  1  0
  3  4  1  0
  3  5  2  0
  3  7  1  0
  4  6  2  0
  4  8  1  0
  5  9  1  0
  6 10  1  0
  7 11  2  0
  8 12  2  0
  9 10  2  0
 11 12  1  0
M  END
>  <PUBCHEM_COMPOUND_CID>  (1) 
7091

>  <PUBCHEM_CONFORMER_RMSD>  (1) 
0.4

>  <PUBCHEM_CONFORMER_DIVERSEORDER>  (1) 
1

>  <PUBCHEM_MMFF94_PARTIAL_CHARGES>  (1) 
18
1 -0.53
10 0.08
11 -0.15
12 -0.15
13 0.15
14 0.15
15 0.15
16 0.15
17 0.15
18 0.15
19 0.45
2 -0.53
20 0.45
5 -0.15
6 -0.15
7 -0.15
8 -0.15
9 0.08

>  <PUBCHEM_EFFECTIVE_ROTOR_COUNT>  (1) 
0

>  <PUBCHEM_PHARMACOPHORE_FEATURES>  (1) 
4
1 1 donor
1 2 donor
6 3 4 5 6 9 10 rings
6 3 4 7 8 11 12 rings

>  <PUBCHEM_HEAVY_ATOM_COUNT>  (1) 
12

>  <PUBCHEM_ATOM_DEF_STEREO_COUNT>  (1) 
0

>  <PUBCHEM_ATOM_UDEF_STEREO_COUNT>  (1) 
0

>  <PUBCHEM_BOND_DEF_STEREO_COUNT>  (1) 
0

>  <PUBCHEM_BOND_UDEF_STEREO_COUNT>  (1) 
0

>  <PUBCHEM_ISOTOPIC_ATOM_COUNT>  (1) 
0

>  <PUBCHEM_COMPONENT_COUNT>  (1) 
1

>  <PUBCHEM_CACTVS_TAUTO_COUNT>  (1) 
4

>  <PUBCHEM_CONFORMER_ID>  (1) 
00001BB300000001

>  <PUBCHEM_MMFF94_ENERGY>  (1) 
32.7987

>  <PUBCHEM_FEATURE_SELFOVERLAP>  (1) 
20.328

>  <PUBCHEM_SHAPE_FINGERPRINT>  (1) 
10608611 8 18411415120210948648
10967382 1 18266459802097955527
11206711 2 18409166636101025125
12032990 46 18410581720419557034
12897270 3 18410572898672431396
13380535 21 18339092505152262773
13380535 76 18339920407670404135
14325111 11 18410575093379860896
15775835 57 18335426733591167836
16945 1 18411695452863040864
17844478 74 18187376466529847523
17990270 104 18411702075871617766
193761 8 15816500217544538081
19973954 147 18410857663567794884
20201158 50 18340767040055516158
20871998 184 18201722885648864135
21501502 16 18409729564532110724
2334 1 18410574019516470757
23402655 69 18269541759725800725
23463225 33 18335700520718674522
23552423 10 18333170578659421998
23559900 14 18342742872074493790
2748010 2 18410855464423135749
369184 2 18411136935115428498
5084963 1 18271809055158581634
528886 8 18411131398971227296
53812653 166 18342733009917050096
63268167 104 18339365171314703328

>  <PUBCHEM_SHAPE_MULTIPOLES>  (1) 
235.22
4.62
1.78
0.6
0.19
0
0
0
0
0.29
0
-0.05
0
0

>  <PUBCHEM_SHAPE_SELFOVERLAP>  (1) 
520.187

>  <PUBCHEM_SHAPE_VOLUME>  (1) 
127.3

>  <PUBCHEM_COORDINATE_TYPE>  (1) 
2
5
10

$$$$
