7098
     RDKit          3D

 16 17  0  0  1  0  0  0  0  0999 V2000
    0.5118   -1.1810    0.1200 N   0  0  0  0  0  0  0  0  0  0  0  0
   -0.5741   -1.0845    1.0622 C   0  0  0  0  0  0  0  0  0  0  0  0
    0.5927   -2.3642   -0.7405 C   0  0  0  0  0  0  0  0  0  0  0  0
    1.4752   -0.1671    0.0042 C   0  0  0  0  0  0  0  0  0  0  0  0
   -1.7067   -0.2665    0.5398 C   0  0  0  0  0  0  0  0  0  0  0  0
    1.4454   -3.4316   -0.0820 C   0  0  0  0  0  0  0  0  0  0  0  0
    2.2658    0.1825    1.1036 C   0  0  0  0  0  0  0  0  0  0  0  0
    1.6519    0.5016   -1.2113 C   0  0  0  0  0  0  0  0  0  0  0  0
   -1.7376    1.1091    0.7691 C   0  0  0  0  0  0  0  0  0  0  0  0
   -2.7353   -0.8771   -0.1778 C   0  0  0  0  0  0  0  0  0  0  0  0
    3.2232    1.1904    0.9885 C   0  0  0  0  0  0  0  0  0  0  0  0
    2.6094    1.5094   -1.3264 C   0  0  0  0  0  0  0  0  0  0  0  0
   -2.7969    1.8739    0.2808 C   0  0  0  0  0  0  0  0  0  0  0  0
   -3.7945   -0.1121   -0.6664 C   0  0  0  0  0  0  0  0  0  0  0  0
    3.3951    1.8538   -0.2265 C   0  0  0  0  0  0  0  0  0  0  0  0
   -3.8253    1.2634   -0.4371 C   0  0  0  0  0  0  0  0  0  0  0  0
  1  2  1  0
  1  3  1  0
  1  4  1  0
  2  5  1  0
  3  6  1  0
  4  7  2  0
  4  8  1  0
  5  9  2  0
  5 10  1  0
  7 11  1  0
  8 12  2  0
  9 13  1  0
 10 14  2  0
 11 15  2  0
 12 15  1  0
 13 16  2  0
 14 16  1  0
M  END
>  <PUBCHEM_COMPOUND_CID>  (1) 
7098

>  <PUBCHEM_CONFORMER_RMSD>  (1) 
0.6

>  <PUBCHEM_CONFORMER_DIVERSEORDER>  (1) 
1
21
32
29
11
28
5
17
7
14
27
13
33
8
20
35
10
24
19
9
6
22
30
38
31
15
36
4
34
23
18
3
39
25
26
16
37
12
2

>  <PUBCHEM_MMFF94_PARTIAL_CHARGES>  (1) 
25
1 -0.84
10 -0.15
11 -0.15
12 -0.15
13 -0.15
14 -0.15
15 -0.15
16 -0.15
2 0.51
24 0.15
25 0.15
26 0.15
27 0.15
28 0.15
29 0.15
3 0.37
30 0.15
31 0.15
32 0.15
33 0.15
4 0.1
5 -0.14
7 -0.15
8 -0.15
9 -0.15

>  <PUBCHEM_EFFECTIVE_ROTOR_COUNT>  (1) 
4

>  <PUBCHEM_PHARMACOPHORE_FEATURES>  (1) 
3
1 1 cation
6 4 7 8 11 12 15 rings
6 5 9 10 13 14 16 rings

>  <PUBCHEM_HEAVY_ATOM_COUNT>  (1) 
16

>  <PUBCHEM_ATOM_DEF_STEREO_COUNT>  (1) 
0

>  <PUBCHEM_ATOM_UDEF_STEREO_COUNT>  (1) 
0

>  <PUBCHEM_BOND_DEF_STEREO_COUNT>  (1) 
0

>  <PUBCHEM_BOND_UDEF_STEREO_COUNT>  (1) 
0

>  <PUBCHEM_ISOTOPIC_ATOM_COUNT>  (1) 
0

>  <PUBCHEM_COMPONENT_COUNT>  (1) 
1

>  <PUBCHEM_CACTVS_TAUTO_COUNT>  (1) 
1

>  <PUBCHEM_CONFORMER_ID>  (1) 
00001BBA00000001

>  <PUBCHEM_MMFF94_ENERGY>  (1) 
56.2724

>  <PUBCHEM_FEATURE_SELFOVERLAP>  (1) 
15.223

>  <PUBCHEM_SHAPE_FINGERPRINT>  (1) 
10498660 4 18413109485088944941
11640471 11 17823698766421902892
11715629 250 18410292472016206021
12788726 201 17467071182363772922
13134695 92 17976256833535823022
14181834 199 18198624324406096254
14250199 8 18194122919722765621
15276787 5 14851878162407438093
15775835 57 18186801421637732340
15852999 172 18260548939351374139
15906896 17 17826797241781655810
16945 1 18341053003563052155
18186145 218 17916882303745176864
18981168 100 17898323586913577323
192875 21 18188757457324287197
20361792 2 11240000027389929857
20671657 1 18267592299196020631
20715895 44 17607501572231396173
21524375 3 18334292106257876442
21731516 1 10375874047821806865
21947302 44 18335144137596422371
2255824 54 18193561069017890539
23402539 116 18130215086132238220
23419403 2 16976134408570243018
23557571 272 17987520479990523599
23559900 14 18198612238399760891
305870 269 18411417302280934958
474 4 18186802452772495449
5262128 65 16988299641127042712
7364860 26 18198059188103162250
81228 2 17407407300341967818
84936 182 18272087154217313728
9981440 41 18337666511675256906

>  <PUBCHEM_SHAPE_MULTIPOLES>  (1) 
324.29
6.45
2.78
1.17
3.03
2.35
-0.05
-4.03
-0.65
-1.42
-0.33
-0.54
-0.2
-0.17

>  <PUBCHEM_SHAPE_SELFOVERLAP>  (1) 
681.332

>  <PUBCHEM_SHAPE_VOLUME>  (1) 
182.8

>  <PUBCHEM_COORDINATE_TYPE>  (1) 
2
5
10

$$$$
