7121
     RDKit          3D

 13 13  0  0  0  0  0  0  0  0999 V2000
   -1.7904    1.6349   -0.3604 O   0  0  0  0  0  0  0  0  0  0  0  0
   -2.6588   -0.9237    0.2892 O   0  0  0  0  0  0  0  0  0  0  0  0
    3.5913   -0.9261    0.1470 O   0  0  0  0  0  0  0  0  0  0  0  0
    3.3208    1.2661   -0.3891 O   0  0  0  0  0  0  0  0  0  0  0  0
   -0.8924    0.6356   -0.1360 C   0  0  0  0  0  0  0  0  0  0  0  0
   -1.3283   -0.6486    0.1905 C   0  0  0  0  0  0  0  0  0  0  0  0
    1.4019   -0.1105   -0.0066 C   0  0  0  0  0  0  0  0  0  0  0  0
    0.4729    0.9047   -0.2345 C   0  0  0  0  0  0  0  0  0  0  0  0
   -0.3992   -1.6637    0.4186 C   0  0  0  0  0  0  0  0  0  0  0  0
    0.9658   -1.3947    0.3200 C   0  0  0  0  0  0  0  0  0  0  0  0
    2.8254    0.1701   -0.1077 C   0  0  0  0  0  0  0  0  0  0  0  0
   -2.1884    2.4141    0.7660 C   0  0  0  0  0  0  0  0  0  0  0  0
   -3.3206   -1.3583   -0.8970 C   0  0  0  0  0  0  0  0  0  0  0  0
  1  5  1  0
  1 12  1  0
  2  6  1  0
  2 13  1  0
  3 11  1  0
  4 11  2  0
  5  6  2  0
  5  8  1  0
  6  9  1  0
  7  8  2  0
  7 10  1  0
  7 11  1  0
  9 10  2  0
M  END
>  <PUBCHEM_COMPOUND_CID>  (1) 
7121

>  <PUBCHEM_CONFORMER_RMSD>  (1) 
0.6

>  <PUBCHEM_CONFORMER_DIVERSEORDER>  (1) 
1
4
6
5
3
2

>  <PUBCHEM_MMFF94_PARTIAL_CHARGES>  (1) 
17
1 -0.36
10 -0.15
11 0.63
12 0.28
13 0.28
14 0.15
15 0.15
16 0.15
2 -0.36
23 0.5
3 -0.65
4 -0.57
5 0.08
6 0.08
7 0.09
8 -0.15
9 -0.15

>  <PUBCHEM_EFFECTIVE_ROTOR_COUNT>  (1) 
3

>  <PUBCHEM_PHARMACOPHORE_FEATURES>  (1) 
6
1 1 acceptor
1 2 acceptor
1 3 acceptor
1 4 acceptor
3 3 4 11 anion
6 5 6 7 8 9 10 rings

>  <PUBCHEM_HEAVY_ATOM_COUNT>  (1) 
13

>  <PUBCHEM_ATOM_DEF_STEREO_COUNT>  (1) 
0

>  <PUBCHEM_ATOM_UDEF_STEREO_COUNT>  (1) 
0

>  <PUBCHEM_BOND_DEF_STEREO_COUNT>  (1) 
0

>  <PUBCHEM_BOND_UDEF_STEREO_COUNT>  (1) 
0

>  <PUBCHEM_ISOTOPIC_ATOM_COUNT>  (1) 
0

>  <PUBCHEM_COMPONENT_COUNT>  (1) 
1

>  <PUBCHEM_CACTVS_TAUTO_COUNT>  (1) 
1

>  <PUBCHEM_CONFORMER_ID>  (1) 
00001BD100000001

>  <PUBCHEM_MMFF94_ENERGY>  (1) 
56.8405

>  <PUBCHEM_FEATURE_SELFOVERLAP>  (1) 
30.51

>  <PUBCHEM_SHAPE_FINGERPRINT>  (1) 
11206711 2 18408039619613500749
12032990 46 18263086681108542571
12932764 1 17418086642075713566
13380535 21 18195540189741632811
13380535 76 18266176119729698251
14325111 11 18408887317583076932
14614273 12 18114454561879057557
14897335 6 18193553376783769165
16945 1 18337397152833039922
193761 8 18121216480906745723
20510252 161 18342177786467382600
20525323 117 18410577271017775419
21501502 16 18337671906286191586
21524375 3 18122909720350277785
2334 1 18335984185933618282
23402539 116 18340476859085229198
23402655 69 18263904611144548783
23552423 10 18189053109940471538
2748010 2 18264492797355304798
353137 74 18260822726484155315
5084963 1 18343865532589480090
6333449 129 18339922619341191181
68250623 7 18268429027508159719

>  <PUBCHEM_SHAPE_MULTIPOLES>  (1) 
244.06
5.14
2.13
0.76
2.25
0.81
-0.01
-0.22
-0.68
-1.45
0.27
-0.29
0
-0.68

>  <PUBCHEM_SHAPE_SELFOVERLAP>  (1) 
507.603

>  <PUBCHEM_SHAPE_VOLUME>  (1) 
140.2

>  <PUBCHEM_COORDINATE_TYPE>  (1) 
2
5
10

$$$$
