7126
     RDKit          3D

 14 14  0  0  0  0  0  0  0  0999 V2000
    3.1818   -0.0210   -0.0083 S   0  0  0  0  0  0  0  0  0  0  0  0
   -1.5826   -1.9586   -0.4722 O   0  0  0  0  0  0  0  0  0  0  0  0
    4.1082    1.3199    0.0249 O   0  0  0  0  0  0  0  0  0  0  0  0
    3.3153   -0.6488   -1.3068 O   0  0  0  0  0  0  0  0  0  0  0  0
    3.3810   -0.7557    1.2241 O   0  0  0  0  0  0  0  0  0  0  0  0
    0.5119   -0.1140   -0.1106 N   0  0  0  0  0  0  0  0  0  0  0  0
   -0.8412    0.2866   -0.0641 C   0  0  0  0  0  0  0  0  0  0  0  0
    1.5973    0.8037    0.0704 C   0  0  0  0  0  0  0  0  0  0  0  0
   -1.8641   -0.6442   -0.2459 C   0  0  0  0  0  0  0  0  0  0  0  0
   -1.1507    1.6270    0.1665 C   0  0  0  0  0  0  0  0  0  0  0  0
   -3.1966   -0.2345   -0.1974 C   0  0  0  0  0  0  0  0  0  0  0  0
   -2.4832    2.0367    0.2151 C   0  0  0  0  0  0  0  0  0  0  0  0
   -3.5061    1.1059    0.0329 C   0  0  0  0  0  0  0  0  0  0  0  0
   -1.4710   -2.8030    0.6713 C   0  0  0  0  0  0  0  0  0  0  0  0
  1  3  1  0
  1  4  2  0
  1  5  2  0
  1  8  1  0
  2  9  1  0
  2 14  1  0
  6  7  1  0
  6  8  1  0
  7  9  2  0
  7 10  1  0
  9 11  1  0
 10 12  2  0
 11 13  2  0
 12 13  1  0
M  END
>  <PUBCHEM_COMPOUND_CID>  (1) 
7126

>  <PUBCHEM_CONFORMER_RMSD>  (1) 
0.6

>  <PUBCHEM_CONFORMER_DIVERSEORDER>  (1) 
1
11
12
9
5
10
8
13
2
3
6
7
4

>  <PUBCHEM_MMFF94_PARTIAL_CHARGES>  (1) 
20
1 1.38
10 -0.15
11 -0.15
12 -0.15
13 -0.15
14 0.28
17 0.4
18 0.15
19 0.15
2 -0.36
20 0.15
21 0.15
22 0.5
3 -0.68
4 -0.65
5 -0.65
6 -0.87
7 0.1
8 0.47
9 0.08

>  <PUBCHEM_EFFECTIVE_ROTOR_COUNT>  (1) 
4

>  <PUBCHEM_PHARMACOPHORE_FEATURES>  (1) 
8
1 2 acceptor
1 3 acceptor
1 4 acceptor
1 5 acceptor
1 6 cation
1 6 donor
4 1 3 4 5 anion
6 7 9 10 11 12 13 rings

>  <PUBCHEM_HEAVY_ATOM_COUNT>  (1) 
14

>  <PUBCHEM_ATOM_DEF_STEREO_COUNT>  (1) 
0

>  <PUBCHEM_ATOM_UDEF_STEREO_COUNT>  (1) 
0

>  <PUBCHEM_BOND_DEF_STEREO_COUNT>  (1) 
0

>  <PUBCHEM_BOND_UDEF_STEREO_COUNT>  (1) 
0

>  <PUBCHEM_ISOTOPIC_ATOM_COUNT>  (1) 
0

>  <PUBCHEM_COMPONENT_COUNT>  (1) 
1

>  <PUBCHEM_CACTVS_TAUTO_COUNT>  (1) 
1

>  <PUBCHEM_CONFORMER_ID>  (1) 
00001BD600000001

>  <PUBCHEM_MMFF94_ENERGY>  (1) 
47.7483

>  <PUBCHEM_FEATURE_SELFOVERLAP>  (1) 
40.649

>  <PUBCHEM_SHAPE_FINGERPRINT>  (1) 
10608611 8 18272930531428860040
12173636 292 18337669720126986165
12592029 89 18191310377595359931
12716758 59 18413387644255379505
12932764 1 17822006489304161892
13024252 1 14056717942265119037
13380535 76 18342173324049128847
14144814 61 18335983090717042312
14325111 11 18340769256190224964
15279307 12 18113897143754252018
15375358 24 18131346419267389332
15669948 3 18340200886040609350
18186145 218 18058172713152484524
20279233 1 17560798831955715902
20510252 161 18272655623457125849
20645476 183 17895490175366136511
20645477 56 18411702088435052088
20645477 70 17060347275683684430
20871998 184 18200880689859532287
23402539 116 18343010113012445621
23557571 272 18270409411611981876
23559900 14 18201720605437623438
2748010 2 17980754154157915573
43471831 8 18263643966253236699
5706482 22 18339635638670022899
74978 22 18335422391416174364
81228 2 18339356500060432817
8809292 202 18413394241288300694
9709674 26 18272092712174169494

>  <PUBCHEM_SHAPE_MULTIPOLES>  (1) 
263.5
6.89
2.29
0.83
6.09
1.23
0.01
-1.47
0.08
-1.72
-0.39
0.49
0.22
-0.06

>  <PUBCHEM_SHAPE_SELFOVERLAP>  (1) 
525.392

>  <PUBCHEM_SHAPE_VOLUME>  (1) 
156.8

>  <PUBCHEM_COORDINATE_TYPE>  (1) 
2
5
10

$$$$
