7133
     RDKit          3D

 22 23  0  0  0  0  0  0  0  0999 V2000
    3.4778   -0.9411    0.3659 N   0  0  0  0  0  0  0  0  0  0  0  0
   -2.8553   -0.7821    0.5719 C   0  0  0  0  0  0  0  0  0  0  0  0
   -3.9868   -0.1099   -0.2105 C   0  0  0  0  0  0  0  0  0  0  0  0
   -1.4870   -0.3896    0.0079 C   0  0  0  0  0  0  0  0  0  0  0  0
   -5.3816   -0.4490    0.3233 C   0  0  0  0  0  0  0  0  0  0  0  0
   -0.3169   -1.0879    0.7066 C   0  0  0  0  0  0  0  0  0  0  0  0
   -6.5088    0.2805   -0.4109 C   0  0  0  0  0  0  0  0  0  0  0  0
    1.0508   -0.6766    0.1601 C   0  0  0  0  0  0  0  0  0  0  0  0
   -7.8714   -0.0390    0.2103 C   0  0  0  0  0  0  0  0  0  0  0  0
    2.1757   -1.3740    0.9177 C   0  0  0  0  0  0  0  0  0  0  0  0
   -8.9959    0.7190   -0.4989 C   0  0  0  0  0  0  0  0  0  0  0  0
  -10.3774    0.4576    0.1046 C   0  0  0  0  0  0  0  0  0  0  0  0
    4.0758    0.1342    0.8950 C   0  0  0  0  0  0  0  0  0  0  0  0
    4.0123   -1.6389   -0.6428 C   0  0  0  0  0  0  0  0  0  0  0  0
    5.3053    0.5732    0.3999 C   0  0  0  0  0  0  0  0  0  0  0  0
  -11.4953    1.2283   -0.5803 C   0  0  0  0  0  0  0  0  0  0  0  0
    5.8958   -0.1419   -0.6646 C   0  0  0  0  0  0  0  0  0  0  0  0
    5.2321   -1.2601   -1.1847 C   0  0  0  0  0  0  0  0  0  0  0  0
    5.9592    1.6963    0.9300 C   0  0  0  0  0  0  0  0  0  0  0  0
    7.1323    0.2871   -1.1743 C   0  0  0  0  0  0  0  0  0  0  0  0
    7.1869    2.1086    0.4118 C   0  0  0  0  0  0  0  0  0  0  0  0
    7.7723    1.4055   -0.6382 C   0  0  0  0  0  0  0  0  0  0  0  0
  1 10  1  0
  1 13  2  0
  1 14  1  0
  2  3  1  0
  2  4  1  0
  3  5  1  0
  4  6  1  0
  5  7  1  0
  6  8  1  0
  7  9  1  0
  8 10  1  0
  9 11  1  0
 11 12  1  0
 12 16  1  0
 13 15  1  0
 14 18  2  0
 15 17  2  0
 15 19  1  0
 17 18  1  0
 17 20  1  0
 19 21  2  0
 20 22  2  0
 21 22  1  0
M  CHG  1   1   1
M  END
>  <PUBCHEM_COMPOUND_CID>  (1) 
7133

>  <PUBCHEM_CONFORMER_RMSD>  (1) 
1.2

>  <PUBCHEM_CONFORMER_DIVERSEORDER>  (1) 
1
39
12
28
164
122
16
10
111
48
159
168
106
8
144
107
2
140
41
63
58
90
43
165
162
72
149
4
73
87
108
13
101
46
61
152
62
69
92
21
24
52
44
102
36
32
113
53
120
131
5
78
7
118
45
37
35
70
85
124
22
161
112
86
59
132
30
119
104
9
114
81
54
27
79
130
170
98
68
75
20
57
115
93
151
153
56
3
23
29
166
136
109
11
154
71
137
15
160
26
89
125
128
97
82
163
51
31
103
34
18
135
116
145
105
47
14
134
84
169
155
88
123
99
96
6
42
110
19
91
143
146
40
121
25
83
49
76
100
148
55
167
64
147
126
95
129
171
66
74
138
65
142
157
38
50
67
33
127
94
158
117
17
133
80
150
156
139
60
77
141

>  <PUBCHEM_MMFF94_PARTIAL_CHARGES>  (1) 
16
1 -0.21
10 0.49
13 0.21
14 0.21
18 -0.15
19 -0.15
20 -0.15
21 -0.15
22 -0.15
45 0.15
46 0.15
50 0.15
51 0.15
52 0.15
53 0.15
54 0.15

>  <PUBCHEM_EFFECTIVE_ROTOR_COUNT>  (1) 
11

>  <PUBCHEM_PHARMACOPHORE_FEATURES>  (1) 
3
1 16 hydrophobe
6 1 13 14 15 17 18 rings
6 15 17 19 20 21 22 rings

>  <PUBCHEM_HEAVY_ATOM_COUNT>  (1) 
22

>  <PUBCHEM_ATOM_DEF_STEREO_COUNT>  (1) 
0

>  <PUBCHEM_ATOM_UDEF_STEREO_COUNT>  (1) 
0

>  <PUBCHEM_BOND_DEF_STEREO_COUNT>  (1) 
0

>  <PUBCHEM_BOND_UDEF_STEREO_COUNT>  (1) 
0

>  <PUBCHEM_ISOTOPIC_ATOM_COUNT>  (1) 
0

>  <PUBCHEM_COMPONENT_COUNT>  (1) 
1

>  <PUBCHEM_CACTVS_TAUTO_COUNT>  (1) 
1

>  <PUBCHEM_CONFORMER_ID>  (1) 
00001BDD00000001

>  <PUBCHEM_MMFF94_ENERGY>  (1) 
30.5913

>  <PUBCHEM_FEATURE_SELFOVERLAP>  (1) 
15.251

>  <PUBCHEM_SHAPE_FINGERPRINT>  (1) 
10 15 17385722500290507211
10299344 5 16415482645046720007
10666366 153 12679466361719384371
11135609 127 17274250777841947840
11211813 74 18130784585584070000
11315181 36 18272091596606045411
11607047 141 17749658616455607634
11638347 137 7997971280407697785
12592606 108 12679461989342501563
12838862 33 16660354893223651411
13685833 64 9727640501389555274
14026016 60 16271377305415115398
14202775 3 11095873892609021045
14216079 64 10735881668316147948
14251764 18 15068341237197712003
14251764 46 9871746893409221223
14428016 248 18201723934580980297
14617042 71 18334297603996175493
15152005 1 15191662285882001294
15183329 4 16630532829614143674
15461852 350 16917063379187312957
15510794 2 18334018294052130411
155225 1 18260267464300959716
15690457 1 9079115553599093377
1754911 235 18201717362948415517
1818759 1 13470685967343798101
20554085 129 17313099765391070920
20721686 124 18343025476554751254
20812841 46 18040427777751403242
21095086 128 12247679370984267597
21130991 4 13182476430368931444
21150785 3 17632579357199815099
21360442 33 18195811769679359086
21360442 67 18202284693004673143
21362267 2 18338501024571092125
21362267 313 15936958627982810049
221357 26 17775008990568141584
23523766 6 17976820883835250842
246663 6 12751239212204948179
28498 318 11455891356555655851
5758199 1 17967250893318267211
57828716 8 14261084148200751236
59521099 67 15482667996954268490
59521506 201 17485915644003326312
59584819 99 15285936809238520550
59682541 35 17167584895578009137
67123 10 18413107269687134295
9937071 3 9151173173744773205

>  <PUBCHEM_SHAPE_MULTIPOLES>  (1) 
447.77
38.15
1.6
1.02
100.65
0.33
0.06
20.92
8.08
-2.98
-0.08
-1.26
-0.05
1.42

>  <PUBCHEM_SHAPE_SELFOVERLAP>  (1) 
898.983

>  <PUBCHEM_SHAPE_VOLUME>  (1) 
263.7

>  <PUBCHEM_COORDINATE_TYPE>  (1) 
2
5
10

$$$$
