7140
     RDKit          3D

 16 17  0  0  1  0  0  0  0  0999 V2000
    1.7999   -0.2260   -0.8607 O   0  0  0  0  0  0  0  0  0  0  0  0
    4.8696    0.0476    1.0425 O   0  0  0  0  0  0  0  0  0  0  0  0
    2.2253   -0.2250    1.4375 O   0  0  0  0  0  0  0  0  0  0  0  0
   -1.7168    0.5652   -0.1549 C   0  0  0  0  0  0  0  0  0  0  0  0
   -2.2539   -0.7384   -0.0303 C   0  0  0  0  0  0  0  0  0  0  0  0
   -0.3494    0.7207   -0.4347 C   0  0  0  0  0  0  0  0  0  0  0  0
    0.4767   -0.3929   -0.5896 C   0  0  0  0  0  0  0  0  0  0  0  0
   -1.4077   -1.8478   -0.1892 C   0  0  0  0  0  0  0  0  0  0  0  0
   -0.0515   -1.6747   -0.4671 C   0  0  0  0  0  0  0  0  0  0  0  0
   -2.5629    1.6746    0.0041 C   0  0  0  0  0  0  0  0  0  0  0  0
   -3.6214   -0.8939    0.2497 C   0  0  0  0  0  0  0  0  0  0  0  0
    4.0666    0.0442   -0.1275 C   0  0  0  0  0  0  0  0  0  0  0  0
   -3.9192    1.5014    0.2819 C   0  0  0  0  0  0  0  0  0  0  0  0
   -4.4475    0.2196    0.4044 C   0  0  0  0  0  0  0  0  0  0  0  0
    2.6181   -0.1400    0.2807 C   0  0  0  0  0  0  0  0  0  0  0  0
    4.2740    1.3654   -0.8469 C   0  0  0  0  0  0  0  0  0  0  0  0
  1  7  1  0
  1 15  1  0
  2 12  1  0
  3 15  2  0
  4  5  1  0
  4  6  2  0
  4 10  1  0
  5  8  2  0
  5 11  1  0
  6  7  1  0
  7  9  2  0
  8  9  1  0
 10 13  2  0
 11 14  2  0
 12 15  1  0
 12 16  1  0
 13 14  1  0
M  END
>  <PUBCHEM_COMPOUND_CID>  (1) 
7140

>  <PUBCHEM_CONFORMER_RMSD>  (1) 
0.6

>  <PUBCHEM_CONFORMER_DIVERSEORDER>  (1) 
1
26
67
48
14
42
63
58
41
50
32
57
51
9
66
61
38
23
17
55
54
65
35
19
12
46
27
21
15
7
34
8
36
49
20
37
43
10
39
47
33
11
13
22
5
28
60
2
53
45
25
52
24
18
3
62
44
30
16
64
56
40
29
4
59
31
6

>  <PUBCHEM_MMFF94_PARTIAL_CHARGES>  (1) 
21
1 -0.23
10 -0.15
11 -0.15
12 0.34
13 -0.15
14 -0.15
15 0.66
17 0.15
18 0.15
19 0.15
2 -0.68
20 0.15
21 0.15
23 0.15
24 0.15
28 0.4
3 -0.57
6 -0.15
7 0.08
8 -0.15
9 -0.15

>  <PUBCHEM_EFFECTIVE_ROTOR_COUNT>  (1) 
3

>  <PUBCHEM_PHARMACOPHORE_FEATURES>  (1) 
5
1 2 acceptor
1 2 donor
1 3 acceptor
6 4 5 10 11 13 14 rings
6 4 5 6 7 8 9 rings

>  <PUBCHEM_HEAVY_ATOM_COUNT>  (1) 
16

>  <PUBCHEM_ATOM_DEF_STEREO_COUNT>  (1) 
0

>  <PUBCHEM_ATOM_UDEF_STEREO_COUNT>  (1) 
1

>  <PUBCHEM_BOND_DEF_STEREO_COUNT>  (1) 
0

>  <PUBCHEM_BOND_UDEF_STEREO_COUNT>  (1) 
0

>  <PUBCHEM_ISOTOPIC_ATOM_COUNT>  (1) 
0

>  <PUBCHEM_COMPONENT_COUNT>  (1) 
1

>  <PUBCHEM_CACTVS_TAUTO_COUNT>  (1) 
1

>  <PUBCHEM_CONFORMER_ID>  (1) 
00001BE400000001

>  <PUBCHEM_MMFF94_ENERGY>  (1) 
42.2863

>  <PUBCHEM_FEATURE_SELFOVERLAP>  (1) 
25.405

>  <PUBCHEM_SHAPE_FINGERPRINT>  (1) 
11132069 177 18410862031844914749
12119455 92 17132112424818373454
12236239 1 17822010925546273694
12251169 10 18333168370861615621
12390115 104 17986693505681814337
12403814 3 17894347778827520221
12596602 18 17458349675363474857
13140716 1 18194974165303823307
13214271 11 18342738516413042823
13583140 156 17095520691263795613
13897977 58 18335708281418831388
14252887 29 15213017129196126170
14943859 89 17704069590426774790
15042514 8 18267307715022456855
15209294 21 17988656142616597281
15219456 202 18059299764047311310
15375462 189 17749382663852323032
15536298 74 18269560446374215766
16945 1 18410303506061353119
17846911 113 18342739602686340525
1813 80 16733267829608408822
18186145 218 17774174404453022927
19050596 39 18113897178366814296
19422 9 18114179757165983266
19862831 5 12607405481366771300
200 152 14995999956316808655
204376 136 18411985736954910263
20510252 161 18271531914025600673
20645477 56 18201998854593214204
22485316 2 8646766681819335988
23402539 116 18411974793747674383
23557571 272 17845387685372575631
23559900 14 18200324221249098830
26918003 58 15574434318943924273
2748010 2 18122076303885263551
474 4 17170123779316554564
5104073 3 18409451362389169210
53812653 166 18273214166805327427
7364860 26 17984425127046609063
76465 3 10809632561800738025
90316 7 17676487190414734373

>  <PUBCHEM_SHAPE_MULTIPOLES>  (1) 
311.66
9.13
1.63
0.91
5.8
0.08
-0.14
-2.92
-1.56
-1.07
0.19
0.7
0
-0.39

>  <PUBCHEM_SHAPE_SELFOVERLAP>  (1) 
671.546

>  <PUBCHEM_SHAPE_VOLUME>  (1) 
170.6

>  <PUBCHEM_COORDINATE_TYPE>  (1) 
2
5
10

$$$$
