7151
     RDKit          3D

 10 10  0  0  0  0  0  0  0  0999 V2000
    2.0390    0.7898    0.0000 O   0  0  0  0  0  0  0  0  0  0  0  0
    1.8865   -1.5070    0.0005 O   0  0  0  0  0  0  0  0  0  0  0  0
   -1.9392    1.3843    0.0002 N   0  0  0  0  0  0  0  0  0  0  0  0
   -0.0886   -0.1713    0.0003 C   0  0  0  0  0  0  0  0  0  0  0  0
   -0.9777   -1.2404   -0.0003 C   0  0  0  0  0  0  0  0  0  0  0  0
   -0.6154    1.1102    0.0006 C   0  0  0  0  0  0  0  0  0  0  0  0
    1.3471   -0.3913    0.0007 C   0  0  0  0  0  0  0  0  0  0  0  0
   -2.3470   -0.9987   -0.0007 C   0  0  0  0  0  0  0  0  0  0  0  0
   -2.7728    0.3199   -0.0003 C   0  0  0  0  0  0  0  0  0  0  0  0
    3.4681    0.7044   -0.0011 C   0  0  0  0  0  0  0  0  0  0  0  0
  1  7  1  0
  1 10  1  0
  2  7  2  0
  3  6  2  0
  3  9  1  0
  4  5  2  0
  4  6  1  0
  4  7  1  0
  5  8  1  0
  8  9  2  0
M  END
>  <PUBCHEM_COMPOUND_CID>  (1) 
7151

>  <PUBCHEM_CONFORMER_RMSD>  (1) 
0.4

>  <PUBCHEM_CONFORMER_DIVERSEORDER>  (1) 
1
3
2
4

>  <PUBCHEM_MMFF94_PARTIAL_CHARGES>  (1) 
14
1 -0.43
10 0.28
11 0.15
12 0.15
13 0.15
14 0.15
2 -0.57
3 -0.62
4 0.09
5 -0.15
6 0.16
7 0.63
8 -0.15
9 0.16

>  <PUBCHEM_EFFECTIVE_ROTOR_COUNT>  (1) 
2

>  <PUBCHEM_PHARMACOPHORE_FEATURES>  (1) 
3
1 2 acceptor
1 3 acceptor
6 3 4 5 6 8 9 rings

>  <PUBCHEM_HEAVY_ATOM_COUNT>  (1) 
10

>  <PUBCHEM_ATOM_DEF_STEREO_COUNT>  (1) 
0

>  <PUBCHEM_ATOM_UDEF_STEREO_COUNT>  (1) 
0

>  <PUBCHEM_BOND_DEF_STEREO_COUNT>  (1) 
0

>  <PUBCHEM_BOND_UDEF_STEREO_COUNT>  (1) 
0

>  <PUBCHEM_ISOTOPIC_ATOM_COUNT>  (1) 
0

>  <PUBCHEM_COMPONENT_COUNT>  (1) 
1

>  <PUBCHEM_CACTVS_TAUTO_COUNT>  (1) 
1

>  <PUBCHEM_CONFORMER_ID>  (1) 
00001BEF00000001

>  <PUBCHEM_MMFF94_ENERGY>  (1) 
27.8426

>  <PUBCHEM_FEATURE_SELFOVERLAP>  (1) 
15.223

>  <PUBCHEM_SHAPE_FINGERPRINT>  (1) 
10857977 72 18338790242655224017
12897270 3 18411981398837448692
12932764 1 17489580182000288146
13380535 76 18410290315710618594
14325111 11 18410575058909196832
14390081 3 18341893004355187200
16945 1 18338516447064168581
19973954 147 18339645538084356292
20871998 184 18129105687453096583
21040471 1 18338797806134778017
23402655 69 18269258103116570437
23552423 10 18261674783339356019
2748010 2 18338238154637144959
29004967 10 18334299811434564699
369184 2 18335137574954744995
5084963 1 18128530466619380627
6333449 129 18341610451346843061

>  <PUBCHEM_SHAPE_MULTIPOLES>  (1) 
189.08
4.59
1.46
0.59
2.39
0.1
0
-0.67
0
-0.21
0
-0.02
0
0

>  <PUBCHEM_SHAPE_SELFOVERLAP>  (1) 
391.059

>  <PUBCHEM_SHAPE_VOLUME>  (1) 
108.1

>  <PUBCHEM_COORDINATE_TYPE>  (1) 
2
5
10

$$$$
