7154
     RDKit          3D

 14 14  0  0  0  0  0  0  0  0999 V2000
    1.1189   -1.9201   -0.4096 O   0  0  0  0  0  0  0  0  0  0  0  0
    2.9928    0.0727    1.4818 O   0  0  0  0  0  0  0  0  0  0  0  0
    0.2308    0.2540   -0.4528 N   0  0  0  0  0  0  0  0  0  0  0  0
   -1.1390    0.0439   -0.1630 C   0  0  0  0  0  0  0  0  0  0  0  0
   -2.0083    1.1200   -0.0869 C   0  0  0  0  0  0  0  0  0  0  0  0
    2.5779   -0.0958   -0.8862 C   0  0  0  0  0  0  0  0  0  0  0  0
   -1.5799   -1.2542    0.0398 C   0  0  0  0  0  0  0  0  0  0  0  0
    1.2271   -0.7065   -0.5644 C   0  0  0  0  0  0  0  0  0  0  0  0
   -3.3542    0.8926    0.2000 C   0  0  0  0  0  0  0  0  0  0  0  0
   -1.5450    2.5239   -0.3041 C   0  0  0  0  0  0  0  0  0  0  0  0
   -2.9259   -1.4817    0.3264 C   0  0  0  0  0  0  0  0  0  0  0  0
   -3.8131   -0.4083    0.4067 C   0  0  0  0  0  0  0  0  0  0  0  0
    3.4145    0.2189    0.3355 C   0  0  0  0  0  0  0  0  0  0  0  0
    4.8035    0.7406    0.0768 C   0  0  0  0  0  0  0  0  0  0  0  0
  1  8  2  0
  2 13  2  0
  3  4  1  0
  3  8  1  0
  4  5  2  0
  4  7  1  0
  5  9  1  0
  5 10  1  0
  6  8  1  0
  6 13  1  0
  7 11  2  0
  9 12  2  0
 11 12  1  0
 13 14  1  0
M  END
>  <PUBCHEM_COMPOUND_CID>  (1) 
7154

>  <PUBCHEM_CONFORMER_RMSD>  (1) 
0.6

>  <PUBCHEM_CONFORMER_DIVERSEORDER>  (1) 
1
21
37
8
31
6
29
16
43
12
30
13
15
7
33
28
42
39
38
4
11
14
24
44
3
10
23
40
18
2
32
17
22
46
19
9
5
20
27
34
36
25
41
45
26
35

>  <PUBCHEM_MMFF94_PARTIAL_CHARGES>  (1) 
19
1 -0.57
10 0.14
11 -0.15
12 -0.15
13 0.45
14 0.06
15 0.37
18 0.15
19 0.15
2 -0.57
23 0.15
24 0.15
3 -0.55
4 0.12
5 -0.14
6 0.12
7 -0.15
8 0.57
9 -0.15

>  <PUBCHEM_EFFECTIVE_ROTOR_COUNT>  (1) 
4

>  <PUBCHEM_PHARMACOPHORE_FEATURES>  (1) 
5
1 1 acceptor
1 2 acceptor
1 3 donor
1 6 anion
6 4 5 7 9 11 12 rings

>  <PUBCHEM_HEAVY_ATOM_COUNT>  (1) 
14

>  <PUBCHEM_ATOM_DEF_STEREO_COUNT>  (1) 
0

>  <PUBCHEM_ATOM_UDEF_STEREO_COUNT>  (1) 
0

>  <PUBCHEM_BOND_DEF_STEREO_COUNT>  (1) 
0

>  <PUBCHEM_BOND_UDEF_STEREO_COUNT>  (1) 
0

>  <PUBCHEM_ISOTOPIC_ATOM_COUNT>  (1) 
0

>  <PUBCHEM_COMPONENT_COUNT>  (1) 
1

>  <PUBCHEM_CACTVS_TAUTO_COUNT>  (1) 
8

>  <PUBCHEM_CONFORMER_ID>  (1) 
00001BF200000001

>  <PUBCHEM_MMFF94_ENERGY>  (1) 
35.3636

>  <PUBCHEM_FEATURE_SELFOVERLAP>  (1) 
25.372

>  <PUBCHEM_SHAPE_FINGERPRINT>  (1) 
10608611 8 18269275672946621452
107287 299 17704076166158907254
11132069 177 18411425011699576725
12251169 10 18113899377242337892
12382932 28 18410015420644566691
12932764 1 17703783700255345582
13214271 11 18413388761099844407
13897977 58 18335988652900306700
15219456 202 18201162057245704638
16945 1 18336557048998476647
17846911 113 18410854348106191497
200 152 14851883681545616201
20510252 161 18341335483493798265
20528008 55 18343581820103515695
20645477 70 16988289668655573982
21119208 17 12895077327397639112
2297311 6 18340221746955235628
23048698 100 16877947152589262364
23402539 116 18337102453915873151
23557571 272 18272663341534072397
23559900 14 18339928095741082974
2748010 2 18048046168548507101
34934 24 18409726240923892375
474 4 16879643811090961356
6333449 129 18413387631502339879
7364860 26 18127413345784596310
81228 2 18191042135407840257
90316 7 17894627011483526013
9882013 296 18113335323550919164

>  <PUBCHEM_SHAPE_MULTIPOLES>  (1) 
271.39
7.78
1.82
0.86
6
0.54
0.12
0.85
1.52
-1.32
-0.18
0.53
-0.02
0.35

>  <PUBCHEM_SHAPE_SELFOVERLAP>  (1) 
556.116

>  <PUBCHEM_SHAPE_VOLUME>  (1) 
156.7

>  <PUBCHEM_COORDINATE_TYPE>  (1) 
2
5
10

$$$$
