7156
     RDKit          3D

 14 14  0  0  0  0  0  0  0  0999 V2000
   -1.5168    2.7367   -0.2996 Cl  0  0  0  0  0  0  0  0  0  0  0  0
    1.1164   -1.9248   -0.4284 O   0  0  0  0  0  0  0  0  0  0  0  0
    2.9894    0.0494    1.4835 O   0  0  0  0  0  0  0  0  0  0  0  0
    0.2273    0.2494   -0.4494 N   0  0  0  0  0  0  0  0  0  0  0  0
   -1.1424    0.0357   -0.1618 C   0  0  0  0  0  0  0  0  0  0  0  0
    2.5746   -0.0950   -0.8862 C   0  0  0  0  0  0  0  0  0  0  0  0
    1.2241   -0.7095   -0.5707 C   0  0  0  0  0  0  0  0  0  0  0  0
   -2.0237    1.1011   -0.0706 C   0  0  0  0  0  0  0  0  0  0  0  0
   -1.5695   -1.2700    0.0256 C   0  0  0  0  0  0  0  0  0  0  0  0
    3.4110    0.2076    0.3387 C   0  0  0  0  0  0  0  0  0  0  0  0
   -3.3667    0.8555    0.2154 C   0  0  0  0  0  0  0  0  0  0  0  0
   -2.9125   -1.5157    0.3115 C   0  0  0  0  0  0  0  0  0  0  0  0
   -3.8111   -0.4529    0.4066 C   0  0  0  0  0  0  0  0  0  0  0  0
    4.7998    0.7325    0.0855 C   0  0  0  0  0  0  0  0  0  0  0  0
  1  8  1  0
  2  7  2  0
  3 10  2  0
  4  5  1  0
  4  7  1  0
  5  8  2  0
  5  9  1  0
  6  7  1  0
  6 10  1  0
  8 11  1  0
  9 12  2  0
 10 14  1  0
 11 13  2  0
 12 13  1  0
M  END
>  <PUBCHEM_COMPOUND_CID>  (1) 
7156

>  <PUBCHEM_CONFORMER_RMSD>  (1) 
0.6

>  <PUBCHEM_CONFORMER_DIVERSEORDER>  (1) 
1
21
38
51
45
14
18
57
16
42
58
10
24
4
41
12
46
23
11
48
54
3
52
13
40
39
44
15
49
22
34
7
30
37
53
56
31
19
43
25
50
55
47
33
8
20
26
17
29
35
2
6
36
27
5
28
32
9

>  <PUBCHEM_MMFF94_PARTIAL_CHARGES>  (1) 
19
1 -0.18
10 0.45
11 -0.15
12 -0.15
13 -0.15
14 0.06
17 0.37
18 0.15
19 0.15
2 -0.57
20 0.15
21 0.15
3 -0.57
4 -0.55
5 0.12
6 0.12
7 0.57
8 0.18
9 -0.15

>  <PUBCHEM_EFFECTIVE_ROTOR_COUNT>  (1) 
4

>  <PUBCHEM_PHARMACOPHORE_FEATURES>  (1) 
5
1 2 acceptor
1 3 acceptor
1 4 donor
1 6 anion
6 5 8 9 11 12 13 rings

>  <PUBCHEM_HEAVY_ATOM_COUNT>  (1) 
14

>  <PUBCHEM_ATOM_DEF_STEREO_COUNT>  (1) 
0

>  <PUBCHEM_ATOM_UDEF_STEREO_COUNT>  (1) 
0

>  <PUBCHEM_BOND_DEF_STEREO_COUNT>  (1) 
0

>  <PUBCHEM_BOND_UDEF_STEREO_COUNT>  (1) 
0

>  <PUBCHEM_ISOTOPIC_ATOM_COUNT>  (1) 
0

>  <PUBCHEM_COMPONENT_COUNT>  (1) 
1

>  <PUBCHEM_CACTVS_TAUTO_COUNT>  (1) 
8

>  <PUBCHEM_CONFORMER_ID>  (1) 
00001BF400000001

>  <PUBCHEM_MMFF94_ENERGY>  (1) 
33.3685

>  <PUBCHEM_FEATURE_SELFOVERLAP>  (1) 
25.371

>  <PUBCHEM_SHAPE_FINGERPRINT>  (1) 
10608611 8 18269557147923312620
107287 299 17704076166158920246
11132069 177 18411987961637167285
12251169 10 18114180852213741316
12382932 28 18410015424939553459
12932764 1 17704065170926532950
13214271 11 18341612642028077623
13897977 58 18336270127850656564
15219456 202 18201443532211885286
16945 1 18336838519664402253
17846911 113 18410854348106184993
200 152 14851883685872270995
20510252 161 18340772541993161465
20528008 55 18343863299364683119
20645477 70 13406792225240100024
21119208 17 13183021826199545784
21650355 55 18335139847208709491
21652331 79 18338515360870608980
2297311 6 18339940271973250220
23048698 100 16877947152583994116
23402539 116 18410285947897547511
23557571 272 18271818907982461285
23559900 14 18340209570723068390
2748010 2 17975988570199859077
34934 24 18409726240918624119
474 4 14691700252417615002
7364860 26 18127977395218022886
81228 2 18191042135392041977
90316 7 17967529034772920421
9882013 296 18113616798522335572

>  <PUBCHEM_SHAPE_MULTIPOLES>  (1) 
273.26
7.73
1.95
0.86
6.08
0.89
0.12
0.68
1.53
-1.49
-0.2
0.53
-0.02
0.35

>  <PUBCHEM_SHAPE_SELFOVERLAP>  (1) 
552.754

>  <PUBCHEM_SHAPE_VOLUME>  (1) 
159.5

>  <PUBCHEM_COORDINATE_TYPE>  (1) 
2
5
10

$$$$
