7158
     RDKit          3D

 15 15  0  0  1  0  0  0  0  0999 V2000
    0.5439   -3.1285    0.3170 Cl  0  0  0  0  0  0  0  0  0  0  0  0
    2.3576    2.8280   -0.1379 Cl  0  0  0  0  0  0  0  0  0  0  0  0
    4.5031    0.4167   -0.3750 Cl  0  0  0  0  0  0  0  0  0  0  0  0
   -1.2066   -0.6921    0.4962 O   0  0  0  0  0  0  0  0  0  0  0  0
   -3.9152    1.3221   -0.7527 O   0  0  0  0  0  0  0  0  0  0  0  0
   -3.0570    1.0667    1.3330 O   0  0  0  0  0  0  0  0  0  0  0  0
   -2.1126   -0.2209   -0.4988 C   0  0  0  0  0  0  0  0  0  0  0  0
    0.1184   -0.4424    0.2947 C   0  0  0  0  0  0  0  0  0  0  0  0
   -2.8629   -1.4184   -1.0550 C   0  0  0  0  0  0  0  0  0  0  0  0
    1.0430   -1.4818    0.1922 C   0  0  0  0  0  0  0  0  0  0  0  0
    0.5437    0.8821    0.1905 C   0  0  0  0  0  0  0  0  0  0  0  0
   -3.0592    0.7700    0.1453 C   0  0  0  0  0  0  0  0  0  0  0  0
    1.8933    1.1672   -0.0164 C   0  0  0  0  0  0  0  0  0  0  0  0
    2.3927   -1.1966   -0.0144 C   0  0  0  0  0  0  0  0  0  0  0  0
    2.8178    0.1278   -0.1189 C   0  0  0  0  0  0  0  0  0  0  0  0
  1 10  1  0
  2 13  1  0
  3 15  1  0
  4  7  1  0
  4  8  1  0
  5 12  1  0
  6 12  2  0
  7  9  1  0
  7 12  1  0
  8 10  2  0
  8 11  1  0
 10 14  1  0
 11 13  2  0
 13 15  1  0
 14 15  2  0
M  END
>  <PUBCHEM_COMPOUND_CID>  (1) 
7158

>  <PUBCHEM_CONFORMER_RMSD>  (1) 
0.6

>  <PUBCHEM_CONFORMER_DIVERSEORDER>  (1) 
1
5
19
22
25
17
4
20
29
27
3
2
14
23
26
10
16
13
9
28
12
15
18
11
6
8
7
21
24

>  <PUBCHEM_MMFF94_PARTIAL_CHARGES>  (1) 
17
1 -0.18
10 0.18
11 -0.15
12 0.66
13 0.18
14 -0.15
15 0.18
2 -0.18
20 0.15
21 0.15
22 0.5
3 -0.18
4 -0.36
5 -0.65
6 -0.57
7 0.34
8 0.08

>  <PUBCHEM_EFFECTIVE_ROTOR_COUNT>  (1) 
3

>  <PUBCHEM_PHARMACOPHORE_FEATURES>  (1) 
5
1 4 acceptor
1 5 acceptor
1 6 acceptor
3 5 6 12 anion
6 8 10 11 13 14 15 rings

>  <PUBCHEM_HEAVY_ATOM_COUNT>  (1) 
15

>  <PUBCHEM_ATOM_DEF_STEREO_COUNT>  (1) 
0

>  <PUBCHEM_ATOM_UDEF_STEREO_COUNT>  (1) 
1

>  <PUBCHEM_BOND_DEF_STEREO_COUNT>  (1) 
0

>  <PUBCHEM_BOND_UDEF_STEREO_COUNT>  (1) 
0

>  <PUBCHEM_ISOTOPIC_ATOM_COUNT>  (1) 
0

>  <PUBCHEM_COMPONENT_COUNT>  (1) 
1

>  <PUBCHEM_CACTVS_TAUTO_COUNT>  (1) 
1

>  <PUBCHEM_CONFORMER_ID>  (1) 
00001BF600000001

>  <PUBCHEM_MMFF94_ENERGY>  (1) 
36.4431

>  <PUBCHEM_FEATURE_SELFOVERLAP>  (1) 
25.437

>  <PUBCHEM_SHAPE_FINGERPRINT>  (1) 
10608611 8 18335419118492949629
10967382 1 18337954472247762514
10980938 120 18337390414008182051
11401426 45 18343016692897054864
11471102 20 18336543811460994300
12654215 9 18116428150796205292
13583140 156 16662032841523358704
14911166 2 18410863196160762774
15279307 12 18272368651033071839
15279308 100 18264776635128420276
15775835 57 18410293596954447455
16945 1 18338232652704891338
18186145 218 18341898514914363420
20510252 161 17978793741820890195
20645476 183 18201148885071579559
20645477 70 18191299386494824951
21524375 3 18261109733437031866
231179 274 18113613452384226476
2334 1 18267022945346127737
23402539 116 18343015584974931798
23402655 69 18340198597123883541
23558518 356 17827920947165554962
23559900 14 18342468084456906044
23598291 2 18057318397092109167
25 1 18334576811044835702
2748010 2 17834687363318777694
3060560 45 18411696561054547334
350125 39 18192161600941808347
474 4 18409167718549087793
528886 8 18410008832138406482
58051976 378 18341325716427229687
63268167 104 18338516335526972385
7364860 26 18267020548897158506
74978 22 18342454829211637405
7832392 63 18341329977150409277
81228 2 17394452845605487290
90525 40 17918272065126352207

>  <PUBCHEM_SHAPE_MULTIPOLES>  (1) 
296.69
6.67
2.72
0.86
0.93
0.77
0.02
-2.88
-1.17
-0.75
0.14
0.57
-0.02
-0.45

>  <PUBCHEM_SHAPE_SELFOVERLAP>  (1) 
588.709

>  <PUBCHEM_SHAPE_VOLUME>  (1) 
179.5

>  <PUBCHEM_COORDINATE_TYPE>  (1) 
2
5
10

$$$$
