7173
     RDKit          3D

 16 16  0  0  0  0  0  0  0  0999 V2000
   -1.2448    2.5885   -0.0076 Cl  0  0  0  0  0  0  0  0  0  0  0  0
   -5.4758   -0.5507   -1.1290 Cl  0  0  0  0  0  0  0  0  0  0  0  0
    3.2509   -0.7993    0.1373 O   0  0  0  0  0  0  0  0  0  0  0  0
   -0.0811    0.0538    1.1137 O   0  0  0  0  0  0  0  0  0  0  0  0
    2.4085    1.0702    1.1972 O   0  0  0  0  0  0  0  0  0  0  0  0
    4.3626   -0.0831   -0.4102 C   0  0  0  0  0  0  0  0  0  0  0  0
    5.3870   -1.0760   -0.9377 C   0  0  0  0  0  0  0  0  0  0  0  0
    3.8668    0.8533   -1.5015 C   0  0  0  0  0  0  0  0  0  0  0  0
    0.9457   -0.7434    0.5278 C   0  0  0  0  0  0  0  0  0  0  0  0
    2.2620   -0.0269    0.6758 C   0  0  0  0  0  0  0  0  0  0  0  0
   -1.3327   -0.0641    0.5869 C   0  0  0  0  0  0  0  0  0  0  0  0
   -1.9912    1.0337    0.0330 C   0  0  0  0  0  0  0  0  0  0  0  0
   -1.9551   -1.3123    0.6095 C   0  0  0  0  0  0  0  0  0  0  0  0
   -3.2721    0.8834   -0.4981 C   0  0  0  0  0  0  0  0  0  0  0  0
   -3.2361   -1.4625    0.0784 C   0  0  0  0  0  0  0  0  0  0  0  0
   -3.8947   -0.3646   -0.4754 C   0  0  0  0  0  0  0  0  0  0  0  0
  1 12  1  0
  2 16  1  0
  3  6  1  0
  3 10  1  0
  4  9  1  0
  4 11  1  0
  5 10  2  0
  6  7  1  0
  6  8  1  0
  9 10  1  0
 11 12  2  0
 11 13  1  0
 12 14  1  0
 13 15  2  0
 14 16  2  0
 15 16  1  0
M  END
>  <PUBCHEM_COMPOUND_CID>  (1) 
7173

>  <PUBCHEM_CONFORMER_RMSD>  (1) 
0.6

>  <PUBCHEM_CONFORMER_DIVERSEORDER>  (1) 
1
218
214
28
49
222
118
149
276
84
332
232
314
336
14
90
345
342
251
104
53
131
189
21
346
249
297
79
311
115
75
198
235
302
324
226
125
25
283
300
154
51
301
126
8
203
271
349
170
59
230
275
269
309
57
100
147
296
333
93
320
5
128
348
83
268
96
110
305
3
279
123
4
6
62
18
19
135
248
330
308
171
78
72
329
323
132
325
46
259
122
164
254
233
137
344
124
36
85
24
82
281
23
76
40
141
114
120
167
282
250
88
66
304
294
94
179
194
341
322
162
117
238
303
151
67
190
262
17
56
159
193
98
97
86
312
313
188
148
278
195
9
169
293
58
176
134
338
89
343
52
340
215
107
163
87
321
284
153
133
277
16
138
273
39
139
165
71
319
108
74
316
334
318
243
44
130
247
310
7
129
140
11
30
119
55
42
231
285
216
20
77
116
65
150
144
242
337
253
26
252
205
69
331
239
12
256
99
219
105
155
191
15
257
228
291
48
185
288
63
168
33
47
328
295
91
61
225
145
326
270
199
186
209
280
327
152
95
158
335
81
173
265
220
287
223
160
43
263
184
121
237
306
29
212
174
31
272
347
266
227
229
274
213
60
34
286
244
127
315
38
70
236
204
175
201
260
157
146
180
267
27
234
181
307
136
289
246
183
292
317
68
80
187
92
261
196
224
172
103
109
2
10
106
298
112
41
37
177
197
101
207
73
142
221
156
161
240
111
208
64
264
290
22
200
50
35
102
245
178
210
217
13
241
339
54
45
192
211
113
32
299
206
166
202
258
255
182
143

>  <PUBCHEM_MMFF94_PARTIAL_CHARGES>  (1) 
17
1 -0.18
10 0.66
11 0.08
12 0.18
13 -0.15
14 -0.15
15 -0.15
16 0.18
2 -0.18
26 0.15
27 0.15
28 0.15
3 -0.43
4 -0.36
5 -0.57
6 0.28
9 0.34

>  <PUBCHEM_EFFECTIVE_ROTOR_COUNT>  (1) 
5

>  <PUBCHEM_PHARMACOPHORE_FEATURES>  (1) 
4
1 4 acceptor
1 5 acceptor
3 6 7 8 hydrophobe
6 11 12 13 14 15 16 rings

>  <PUBCHEM_HEAVY_ATOM_COUNT>  (1) 
16

>  <PUBCHEM_ATOM_DEF_STEREO_COUNT>  (1) 
0

>  <PUBCHEM_ATOM_UDEF_STEREO_COUNT>  (1) 
0

>  <PUBCHEM_BOND_DEF_STEREO_COUNT>  (1) 
0

>  <PUBCHEM_BOND_UDEF_STEREO_COUNT>  (1) 
0

>  <PUBCHEM_ISOTOPIC_ATOM_COUNT>  (1) 
0

>  <PUBCHEM_COMPONENT_COUNT>  (1) 
1

>  <PUBCHEM_CACTVS_TAUTO_COUNT>  (1) 
1

>  <PUBCHEM_CONFORMER_ID>  (1) 
00001C0500000001

>  <PUBCHEM_MMFF94_ENERGY>  (1) 
38.9382

>  <PUBCHEM_FEATURE_SELFOVERLAP>  (1) 
20.304

>  <PUBCHEM_SHAPE_FINGERPRINT>  (1) 
10498660 4 18113336435731359460
11128504 68 18260550047373646396
12186901 62 18409445856531121893
12251169 10 10447922863199711674
12596602 18 9583518732827755823
13551218 46 12031801244321546421
13675066 3 13183027297803251482
14123260 362 16660375765751684798
1420 369 14908187447258523438
14350574 20 17632295683511039762
17870717 6 18342468010208163582
17959699 21 17240196638490422229
1813 80 15410624696108804976
18186145 218 18272649060446047099
187816 3 18259981574683145355
19784866 240 16486978405368926207
1986462 14 18130792226441178216
200 152 17060617793608244971
20300324 65 18409172090867993012
20374829 77 18201995534457140719
20432913 95 14836129853262975286
20645477 70 17275384317967672846
20671657 53 17632582643314046704
20871999 31 18334571326793624461
21065199 12 10015593791604336478
212916 134 11097848622963485525
21618674 25 12324238351913526081
21637258 2 15984809455258650975
22094290 60 18412829070726037176
22926399 37 17240482511587360149
23379529 103 17624678443591787079
23402539 116 18411979131305810605
23402655 69 17821730516138138524
23557571 272 18343305829520740157
23559900 14 18337386140742614944
2871803 45 18412541007364576354
2916195 48 12035443943935564111
3286 77 16917347064758904216
4028521 119 17821444647067122653
42 15 12895359888805929222
4259306 186 17918273134235475190
449060 50 11241969278606503578
465052 167 14117230754558465981
474 4 16298677165293650748
58051976 378 18408606937833959566

>  <PUBCHEM_SHAPE_MULTIPOLES>  (1) 
315.4
11.09
1.73
1.16
5.54
0.94
-0.15
-3.04
-5.62
-0.76
0.04
0.48
0.05
0.02

>  <PUBCHEM_SHAPE_SELFOVERLAP>  (1) 
625.276

>  <PUBCHEM_SHAPE_VOLUME>  (1) 
189.5

>  <PUBCHEM_COORDINATE_TYPE>  (1) 
2
5
10

$$$$
