7179
     RDKit          3D

 20 21  0  0  0  0  0  0  0  0999 V2000
    7.2469    0.7465   -0.0006 Cl  0  0  0  0  0  0  0  0  0  0  0  0
   -7.2387   -0.7430   -0.0011 Cl  0  0  0  0  0  0  0  0  0  0  0  0
    0.6793    0.2347   -0.0008 O   0  0  0  0  0  0  0  0  0  0  0  0
   -0.6992   -0.2409   -0.0009 O   0  0  0  0  0  0  0  0  0  0  0  0
    1.1037   -2.0320    0.0064 O   0  0  0  0  0  0  0  0  0  0  0  0
   -1.1233    2.0257    0.0065 O   0  0  0  0  0  0  0  0  0  0  0  0
    2.9034   -0.4690   -0.0010 C   0  0  0  0  0  0  0  0  0  0  0  0
   -2.9235    0.4632   -0.0005 C   0  0  0  0  0  0  0  0  0  0  0  0
    3.8556   -1.2842    0.6107 C   0  0  0  0  0  0  0  0  0  0  0  0
   -3.8469    1.2871    0.6103 C   0  0  0  0  0  0  0  0  0  0  0  0
    3.2944    0.7221   -0.6126 C   0  0  0  0  0  0  0  0  0  0  0  0
   -3.2859   -0.7203   -0.6115 C   0  0  0  0  0  0  0  0  0  0  0  0
    5.1988   -0.9083    0.6111 C   0  0  0  0  0  0  0  0  0  0  0  0
   -5.1903    0.9115    0.6103 C   0  0  0  0  0  0  0  0  0  0  0  0
    4.6377    1.0980   -0.6122 C   0  0  0  0  0  0  0  0  0  0  0  0
   -4.6293   -1.0957   -0.6115 C   0  0  0  0  0  0  0  0  0  0  0  0
    5.5899    0.2828   -0.0005 C   0  0  0  0  0  0  0  0  0  0  0  0
   -5.5815   -0.2799   -0.0006 C   0  0  0  0  0  0  0  0  0  0  0  0
    1.5027   -0.8603   -0.0012 C   0  0  0  0  0  0  0  0  0  0  0  0
   -1.4939    0.8621   -0.0005 C   0  0  0  0  0  0  0  0  0  0  0  0
  1 17  1  0
  2 18  1  0
  3  4  1  0
  3 19  1  0
  4 20  1  0
  5 19  2  0
  6 20  2  0
  7  9  2  0
  7 11  1  0
  7 19  1  0
  8 10  2  0
  8 12  1  0
  8 20  1  0
  9 13  1  0
 10 14  1  0
 11 15  2  0
 12 16  2  0
 13 17  2  0
 14 18  2  0
 15 17  1  0
 16 18  1  0
M  END
>  <PUBCHEM_COMPOUND_CID>  (1) 
7179

>  <PUBCHEM_CONFORMER_RMSD>  (1) 
0.8

>  <PUBCHEM_CONFORMER_DIVERSEORDER>  (1) 
1
24
32
28
3
25
34
30
2
6
17
14
16
8
12
19
11
10
5
33
20
7
22
15
4
21
13
31
26
18
23
27
9
29

>  <PUBCHEM_MMFF94_PARTIAL_CHARGES>  (1) 
28
1 -0.18
10 -0.15
11 -0.15
12 -0.15
13 -0.15
14 -0.15
15 -0.15
16 -0.15
17 0.18
18 0.18
19 0.63
2 -0.18
20 0.63
21 0.15
22 0.15
23 0.15
24 0.15
25 0.15
26 0.15
27 0.15
28 0.15
3 -0.15
4 -0.15
5 -0.57
6 -0.57
7 0.09
8 0.09
9 -0.15

>  <PUBCHEM_EFFECTIVE_ROTOR_COUNT>  (1) 
5

>  <PUBCHEM_PHARMACOPHORE_FEATURES>  (1) 
4
1 5 acceptor
1 6 acceptor
6 7 9 11 13 15 17 rings
6 8 10 12 14 16 18 rings

>  <PUBCHEM_HEAVY_ATOM_COUNT>  (1) 
20

>  <PUBCHEM_ATOM_DEF_STEREO_COUNT>  (1) 
0

>  <PUBCHEM_ATOM_UDEF_STEREO_COUNT>  (1) 
0

>  <PUBCHEM_BOND_DEF_STEREO_COUNT>  (1) 
0

>  <PUBCHEM_BOND_UDEF_STEREO_COUNT>  (1) 
0

>  <PUBCHEM_ISOTOPIC_ATOM_COUNT>  (1) 
0

>  <PUBCHEM_COMPONENT_COUNT>  (1) 
1

>  <PUBCHEM_CACTVS_TAUTO_COUNT>  (1) 
1

>  <PUBCHEM_CONFORMER_ID>  (1) 
00001C0B00000001

>  <PUBCHEM_MMFF94_ENERGY>  (1) 
52.3278

>  <PUBCHEM_FEATURE_SELFOVERLAP>  (1) 
20.297

>  <PUBCHEM_SHAPE_FINGERPRINT>  (1) 
10 15 17022900199360868556
10090160 65 18113617880543078714
10299344 5 18342177773798634715
10354089 29 18187365429049400540
10595046 47 18410292484426068424
10968037 39 18412825798688866895
11315181 36 18343585153541638441
11524674 6 15697997457696673023
11724838 91 18335138717764211910
12107183 9 17545882629068324720
12166972 35 17894633656230410844
12236239 1 18410573963676614665
12516196 113 18131632292391058937
12730499 353 16487540243485110838
12916748 109 16415482636166472978
13288520 33 18343020008996903309
13533116 47 17313659352912782482
13631057 29 18271240638377106215
14123256 10 18410575101842948110
1420 363 17822015302297406931
14251764 18 18410856572524691488
14251764 46 17967250910218249223
14341114 328 18413107242788546566
14528608 73 18411984684514005380
14848160 23 16298387959022359857
15716309 27 18411980252260762587
15927050 60 17480296107747921524
17492 89 18121214277747064410
17834072 33 18413670223080980537
17834072 8 10159700196345438968
200 152 18334010579868204133
21033648 29 16443332208946414500
21065198 48 18338516330983981312
21267235 1 18342462564890855571
22224240 67 18186800301130978418
22896161 15 18411136961127987851
2297311 6 16988569000470016049
23035841 295 18131634478112739543
23402539 116 18186517679060389485
23559900 14 18261390108611938672
26918003 58 17530971284538173337
300161 21 18409726240422647981
34797466 226 16988569034392164132
3545911 37 18260267456385861950
4073 2 17967540107172106074
4325135 7 18410855468718096676
4340502 62 16587740941537402322
474229 33 18409167718449062234
5104073 3 18338517434790577009
542803 24 18411136926541357154
5486654 2 18413109476203312462
5758199 1 18409449207001193312
59682541 35 18338516446948105131
59755656 520 17748821951682923210
67856867 119 18336829804765010180
7495541 125 18131063857569150600

>  <PUBCHEM_SHAPE_MULTIPOLES>  (1) 
391.85
18.93
1.53
0.76
0.15
0
0
-0.03
-0.59
0
-0.06
0
0
-1.1

>  <PUBCHEM_SHAPE_SELFOVERLAP>  (1) 
824.351

>  <PUBCHEM_SHAPE_VOLUME>  (1) 
222.1

>  <PUBCHEM_COORDINATE_TYPE>  (1) 
2
5
10

$$$$
