7181
     RDKit          3D

 18 19  0  0  0  0  0  0  0  0999 V2000
    1.2743   -2.1524   -0.0534 S   0  0  0  0  0  0  0  0  0  0  0  0
   -2.3679   -0.5277    1.4168 S   0  0  0  0  0  0  0  0  0  0  0  0
    2.2683   -2.8418    0.7609 O   0  0  0  0  0  0  0  0  0  0  0  0
    1.0747   -2.5827   -1.4318 O   0  0  0  0  0  0  0  0  0  0  0  0
   -0.2289   -2.1956    0.7875 N   0  0  0  0  0  0  0  0  0  0  0  0
   -1.5046   -1.0523   -0.9381 N   0  0  0  0  0  0  0  0  0  0  0  0
   -2.5700   -0.1868   -1.1146 N   0  0  0  0  0  0  0  0  0  0  0  0
    2.6222    3.6389   -0.0433 N   0  0  0  0  0  0  0  0  0  0  0  0
    1.6707   -0.4521   -0.0505 C   0  0  0  0  0  0  0  0  0  0  0  0
    2.4180    0.0880    0.9962 C   0  0  0  0  0  0  0  0  0  0  0  0
    1.2390    0.3666   -1.0941 C   0  0  0  0  0  0  0  0  0  0  0  0
   -1.2802   -1.3223    0.3398 C   0  0  0  0  0  0  0  0  0  0  0  0
    2.3021    2.2654   -0.0447 C   0  0  0  0  0  0  0  0  0  0  0  0
    2.7335    1.4468    0.9992 C   0  0  0  0  0  0  0  0  0  0  0  0
    1.5547    1.7252   -1.0913 C   0  0  0  0  0  0  0  0  0  0  0  0
   -4.2593    1.0761    0.1924 C   0  0  0  0  0  0  0  0  0  0  0  0
   -3.1096    0.1637    0.0333 C   0  0  0  0  0  0  0  0  0  0  0  0
   -3.8369    2.5431    0.3358 C   0  0  0  0  0  0  0  0  0  0  0  0
  1  3  2  0
  1  4  2  0
  1  5  1  0
  1  9  1  0
  2 12  1  0
  2 17  1  0
  5 12  1  0
  6  7  1  0
  6 12  2  0
  7 17  2  0
  8 13  1  0
  9 10  2  0
  9 11  1  0
 10 14  1  0
 11 15  2  0
 13 14  2  0
 13 15  1  0
 16 17  1  0
 16 18  1  0
M  END
>  <PUBCHEM_COMPOUND_CID>  (1) 
7181

>  <PUBCHEM_CONFORMER_RMSD>  (1) 
0.6

>  <PUBCHEM_CONFORMER_DIVERSEORDER>  (1) 
1
42
34
35
12
40
7
15
23
49
39
8
3
33
17
14
31
9
18
21
27
22
19
45
43
16
2
29
38
4
41
44
5
10
6
47
24
46
30
48
11
13
32
28
36
26
25
20
37

>  <PUBCHEM_MMFF94_PARTIAL_CHARGES>  (1) 
24
1 1.45
10 -0.15
11 -0.15
12 0.52
13 0.1
14 -0.15
15 -0.15
16 0.18
17 0.2
19 0.42
2 -0.08
20 0.15
21 0.15
24 0.15
25 0.15
29 0.4
3 -0.65
30 0.4
4 -0.65
5 -0.7
6 -0.34
7 -0.34
8 -0.9
9 -0.01

>  <PUBCHEM_EFFECTIVE_ROTOR_COUNT>  (1) 
4

>  <PUBCHEM_PHARMACOPHORE_FEATURES>  (1) 
10
1 18 hydrophobe
1 3 acceptor
1 4 acceptor
1 5 donor
1 6 acceptor
1 7 acceptor
1 8 cation
1 8 donor
5 2 6 7 12 17 rings
6 9 10 11 13 14 15 rings

>  <PUBCHEM_HEAVY_ATOM_COUNT>  (1) 
18

>  <PUBCHEM_ATOM_DEF_STEREO_COUNT>  (1) 
0

>  <PUBCHEM_ATOM_UDEF_STEREO_COUNT>  (1) 
0

>  <PUBCHEM_BOND_DEF_STEREO_COUNT>  (1) 
0

>  <PUBCHEM_BOND_UDEF_STEREO_COUNT>  (1) 
0

>  <PUBCHEM_ISOTOPIC_ATOM_COUNT>  (1) 
0

>  <PUBCHEM_COMPONENT_COUNT>  (1) 
1

>  <PUBCHEM_CACTVS_TAUTO_COUNT>  (1) 
2

>  <PUBCHEM_CONFORMER_ID>  (1) 
00001C0D00000001

>  <PUBCHEM_MMFF94_ENERGY>  (1) 
28.3955

>  <PUBCHEM_FEATURE_SELFOVERLAP>  (1) 
52.258

>  <PUBCHEM_SHAPE_FINGERPRINT>  (1) 
10382601 240 18187642475371672784
104564 63 17257380643532820406
11640471 11 18060132176143488735
11725454 13 16484419966803324928
12633257 1 17749935713695072384
13134695 92 18192708951827581934
13464514 151 18339093617912763550
14817 1 17254301414185720574
15295992 7 18044675113353545361
15420108 30 18127666319490134458
16945 1 18334283288932981034
17041 49 18120651340625511619
18522851 12 8790061724304576709
18981168 100 18265637487949685507
192875 21 17980171374082155877
20442098 301 11170209673910921313
20510252 161 17690847086966434818
20621476 13 18336817581742026261
20671657 1 18408889524811379223
21041028 32 17904762185008181478
21475661 188 17970903363529741717
21524375 3 18126572455506676922
21665062 11 18265900159375159273
21731228 192 18192150618910723584
21947302 44 18335706026793161467
22749437 52 18409446977697518897
23419403 2 13705077488788023863
23558518 356 18411410714229078919
305870 269 18338797917846216722
3286 77 17969227737736378579
474 4 18409158931277985201
49207404 50 18188228566941012729
5939293 188 18266458694001661430
7364860 26 18341897346524860558
7832392 63 18269551637759898687
81228 2 17255979866019974034
84936 182 18343578564265468369
9981440 41 18194391414865391761

>  <PUBCHEM_SHAPE_MULTIPOLES>  (1) 
346.47
6.22
3.62
1.25
6.32
0.91
0.05
4.23
-0.96
-2.55
0.01
-0.13
-0.26
-0.04

>  <PUBCHEM_SHAPE_SELFOVERLAP>  (1) 
700.681

>  <PUBCHEM_SHAPE_VOLUME>  (1) 
202.9

>  <PUBCHEM_COORDINATE_TYPE>  (1) 
2
5
10

$$$$
