7186
     RDKit          3D

 13 13  0  0  1  0  0  0  0  0999 V2000
   -0.4094    2.8887    0.0380 O   0  0  0  0  0  0  0  0  0  0  0  0
    2.0202    0.2322   -0.5915 O   0  0  0  0  0  0  0  0  0  0  0  0
    2.2136   -0.7274    1.4921 O   0  0  0  0  0  0  0  0  0  0  0  0
    2.8383   -1.8638   -0.4066 N   0  0  0  0  0  0  0  0  0  0  0  0
    0.0857    1.6807   -0.5531 C   0  0  0  0  0  0  0  0  0  0  0  0
   -0.8706    0.5672   -0.2887 C   0  0  0  0  0  0  0  0  0  0  0  0
    1.4960    1.4148   -0.0045 C   0  0  0  0  0  0  0  0  0  0  0  0
   -1.0071   -0.4690   -1.2125 C   0  0  0  0  0  0  0  0  0  0  0  0
   -1.6284    0.5617    0.8826 C   0  0  0  0  0  0  0  0  0  0  0  0
   -1.9013   -1.5105   -0.9653 C   0  0  0  0  0  0  0  0  0  0  0  0
   -2.5225   -0.4801    1.1297 C   0  0  0  0  0  0  0  0  0  0  0  0
   -2.6590   -1.5161    0.2058 C   0  0  0  0  0  0  0  0  0  0  0  0
    2.3443   -0.7784    0.2738 C   0  0  0  0  0  0  0  0  0  0  0  0
  1  5  1  0
  2  7  1  0
  2 13  1  0
  3 13  2  0
  4 13  1  0
  5  6  1  0
  5  7  1  0
  6  8  2  0
  6  9  1  0
  8 10  1  0
  9 11  2  0
 10 12  2  0
 11 12  1  0
M  END
>  <PUBCHEM_COMPOUND_CID>  (1) 
7186

>  <PUBCHEM_CONFORMER_RMSD>  (1) 
0.6

>  <PUBCHEM_CONFORMER_DIVERSEORDER>  (1) 
10
41
23
4
31
47
46
15
48
38
11
17
25
36
8
37
29
21
7
33
6
35
24
39
40
30
44
43
32
13
2
27
26
5
45
9
22
16
20
19
34
42
12
28
18
14
3
1

>  <PUBCHEM_MMFF94_PARTIAL_CHARGES>  (1) 
21
1 -0.68
10 -0.15
11 -0.15
12 -0.15
13 0.78
17 0.15
18 0.15
19 0.15
2 -0.43
20 0.15
21 0.15
22 0.4
23 0.37
24 0.37
3 -0.57
4 -0.8
5 0.42
6 -0.14
7 0.28
8 -0.15
9 -0.15

>  <PUBCHEM_EFFECTIVE_ROTOR_COUNT>  (1) 
4

>  <PUBCHEM_PHARMACOPHORE_FEATURES>  (1) 
5
1 1 acceptor
1 1 donor
1 3 acceptor
1 4 donor
6 6 8 9 10 11 12 rings

>  <PUBCHEM_HEAVY_ATOM_COUNT>  (1) 
13

>  <PUBCHEM_ATOM_DEF_STEREO_COUNT>  (1) 
0

>  <PUBCHEM_ATOM_UDEF_STEREO_COUNT>  (1) 
1

>  <PUBCHEM_BOND_DEF_STEREO_COUNT>  (1) 
0

>  <PUBCHEM_BOND_UDEF_STEREO_COUNT>  (1) 
0

>  <PUBCHEM_ISOTOPIC_ATOM_COUNT>  (1) 
0

>  <PUBCHEM_COMPONENT_COUNT>  (1) 
1

>  <PUBCHEM_CACTVS_TAUTO_COUNT>  (1) 
2

>  <PUBCHEM_CONFORMER_ID>  (1) 
00001C120000000A

>  <PUBCHEM_MMFF94_ENERGY>  (1) 
29.1842

>  <PUBCHEM_FEATURE_SELFOVERLAP>  (1) 
25.371

>  <PUBCHEM_SHAPE_FINGERPRINT>  (1) 
10857977 72 15625115311463169251
12202030 40 16879068740264641507
12326174 3 17826217781678263416
15076042 46 18059307469366125313
15276787 5 16199598956833606770
16945 1 17632590335394569605
20201158 50 17677324055890798922
20361792 2 18408316713570718366
20645477 70 17975689816718091535
20871998 184 18197501718601636436
21028194 46 10735881681132322223
22445834 79 18198917000662406299
22713034 7 18193840563782257351
23552423 10 17909270531017532389
528862 383 18049722116015848559
598444 67 17478348434499673711
81228 2 18192415390612459616

>  <PUBCHEM_SHAPE_MULTIPOLES>  (1) 
244.94
4.1
2.26
1.17
0.67
1.02
0.13
-2.57
0.75
0.63
-0.22
-0.25
-0.24
-0.34

>  <PUBCHEM_SHAPE_SELFOVERLAP>  (1) 
503.172

>  <PUBCHEM_SHAPE_VOLUME>  (1) 
140

>  <PUBCHEM_COORDINATE_TYPE>  (1) 
2
5
10

$$$$
