7188
     RDKit          3D

 18 19  0  0  0  0  0  0  0  0999 V2000
    1.0827   -2.0788    0.3676 S   0  0  0  0  0  0  0  0  0  0  0  0
   -0.1866   -0.8841    1.4674 S   0  0  0  0  0  0  0  0  0  0  0  0
    0.6803   -0.8430   -2.3574 S   0  0  0  0  0  0  0  0  0  0  0  0
   -2.4299   -2.7571    0.7095 S   0  0  0  0  0  0  0  0  0  0  0  0
    2.6402   -0.2624   -0.6579 N   0  0  0  0  0  0  0  0  0  0  0  0
   -2.3333   -0.1521    0.1891 N   0  0  0  0  0  0  0  0  0  0  0  0
    4.3910    1.5566    0.7186 C   0  0  0  0  0  0  0  0  0  0  0  0
   -4.3138    1.8826   -0.2658 C   0  0  0  0  0  0  0  0  0  0  0  0
    3.1923    2.0636   -0.0841 C   0  0  0  0  0  0  0  0  0  0  0  0
    4.1371    0.1452    1.2494 C   0  0  0  0  0  0  0  0  0  0  0  0
   -3.4185    1.9099    0.9735 C   0  0  0  0  0  0  0  0  0  0  0  0
   -4.5191    0.4505   -0.7614 C   0  0  0  0  0  0  0  0  0  0  0  0
    2.8138    1.0839   -1.1908 C   0  0  0  0  0  0  0  0  0  0  0  0
    3.7441   -0.8070    0.1237 C   0  0  0  0  0  0  0  0  0  0  0  0
   -2.0995    1.1859    0.7195 C   0  0  0  0  0  0  0  0  0  0  0  0
   -3.1841   -0.2517   -0.9910 C   0  0  0  0  0  0  0  0  0  0  0  0
    1.5353   -0.9985   -0.9348 C   0  0  0  0  0  0  0  0  0  0  0  0
   -1.7320   -1.2433    0.7250 C   0  0  0  0  0  0  0  0  0  0  0  0
  1  2  1  0
  1 17  1  0
  2 18  1  0
  3 17  2  0
  4 18  2  0
  5 13  1  0
  5 14  1  0
  5 17  1  0
  6 15  1  0
  6 16  1  0
  6 18  1  0
  7  9  1  0
  7 10  1  0
  8 11  1  0
  8 12  1  0
  9 13  1  0
 10 14  1  0
 11 15  1  0
 12 16  1  0
M  END
>  <PUBCHEM_COMPOUND_CID>  (1) 
7188

>  <PUBCHEM_CONFORMER_RMSD>  (1) 
0.8

>  <PUBCHEM_CONFORMER_DIVERSEORDER>  (1) 
1
116
103
57
133
40
21
44
111
209
9
8
174
173
81
48
18
137
2
68
197
148
61
10
5
127
73
101
179
142
65
32
150
138
190
112
106
147
113
107
162
16
13
23
159
152
117
154
185
139
169
160
70
207
201
110
93
118
176
171
108
140
132
45
184
205
53
35
165
141
146
188
178
143
104
208
193
63
84
6
145
182
99
211
186
94
12
206
59
167
149
203
89
204
72
43
126
34
31
157
49
187
77
75
22
39
82
156
123
199
98
124
47
114
37
134
189
86
92
115
200
129
158
175
119
170
122
155
192
80
168
198
74
128
125
54
41
120
102
52
95
191
163
71
131
144
28
56
50
202
69
62
180
55
46
20
66
96
183
51
97
196
88
153
135
85
136
172
83
38
87
105
60
17
25
4
76
91
181
100
177
42
109
121
195
151
15
67
29
79
33
166
164
161
194
130
36
14
58
30
64
210
19
90
24
26
11
3
7
27
78

>  <PUBCHEM_MMFF94_PARTIAL_CHARGES>  (1) 
12
1 -0.14
13 0.3
14 0.3
15 0.3
16 0.3
17 0.58
18 0.58
2 -0.14
3 -0.38
4 -0.38
5 -0.66
6 -0.66

>  <PUBCHEM_EFFECTIVE_ROTOR_COUNT>  (1) 
7.4

>  <PUBCHEM_PHARMACOPHORE_FEATURES>  (1) 
4
1 3 acceptor
1 4 acceptor
6 5 7 9 10 13 14 rings
6 6 8 11 12 15 16 rings

>  <PUBCHEM_HEAVY_ATOM_COUNT>  (1) 
18

>  <PUBCHEM_ATOM_DEF_STEREO_COUNT>  (1) 
0

>  <PUBCHEM_ATOM_UDEF_STEREO_COUNT>  (1) 
0

>  <PUBCHEM_BOND_DEF_STEREO_COUNT>  (1) 
0

>  <PUBCHEM_BOND_UDEF_STEREO_COUNT>  (1) 
0

>  <PUBCHEM_ISOTOPIC_ATOM_COUNT>  (1) 
0

>  <PUBCHEM_COMPONENT_COUNT>  (1) 
1

>  <PUBCHEM_CACTVS_TAUTO_COUNT>  (1) 
1

>  <PUBCHEM_CONFORMER_ID>  (1) 
00001C1400000001

>  <PUBCHEM_MMFF94_ENERGY>  (1) 
38.3523

>  <PUBCHEM_FEATURE_SELFOVERLAP>  (1) 
20.297

>  <PUBCHEM_SHAPE_FINGERPRINT>  (1) 
10646746 165 18409171038801348698
11370993 70 18408599257999742227
12006461 19 8574424322759495789
12173636 292 18337679624817137179
12633257 1 17967524675734133264
12788726 201 17463426253698716866
128620 24 15410892963696894644
13583140 156 18130502050288377186
13965767 371 17532364275528740355
14123250 116 17987532437158806025
14178342 30 18040724687833227235
14251732 17 18342453730090471376
14251764 30 13695859269764313424
14251764 38 18339359781104892608
14468879 13 18060145331839436567
15239191 94 8214139642393660969
1741750 31 18408325471420738547
18186145 218 18335432218058631039
192875 21 18412823577621406944
20442098 301 9079113328299476146
21033648 29 17385997317683073229
22749437 52 18409452500587345200
23227448 37 18409447016214548213
23379529 103 8861849895609010072
235170 7 16128658543808368341
23557571 272 18266761223204002023
23559900 14 18341612564845948786
2871803 45 11527945638546167824
312423 11 13254532928451070500
3472631 163 18198901414685512405
351380 180 18341888585108120304
449060 23 11887952138075215127
474 4 18335139782383461720
6328613 192 18260555546055612620
7615 1 17024043741848644783
9709674 26 18272378550631690551
9981440 41 18411412934136100555

>  <PUBCHEM_SHAPE_MULTIPOLES>  (1) 
375.87
9.25
2.59
1.63
0.22
0.36
0.66
-5.36
-0.73
-1.09
-0.6
0.37
0.27
0.29

>  <PUBCHEM_SHAPE_SELFOVERLAP>  (1) 
706.762

>  <PUBCHEM_SHAPE_VOLUME>  (1) 
234.7

>  <PUBCHEM_COORDINATE_TYPE>  (1) 
2
5
10

$$$$
