7199
     RDKit          3D

 10 10  0  0  1  0  0  0  0  0999 V2000
   -0.0093    2.1245    0.6620 O   0  0  0  0  0  0  0  0  0  0  0  0
    0.0484   -0.2691    0.8588 C   0  0  0  0  0  0  0  0  0  0  0  0
   -1.1277   -1.2419    0.9875 C   0  0  0  0  0  0  0  0  0  0  0  0
   -1.9387   -1.3805   -0.2997 C   0  0  0  0  0  0  0  0  0  0  0  0
    1.2066   -0.8448    0.0502 C   0  0  0  0  0  0  0  0  0  0  0  0
   -2.4352   -0.0194   -0.7779 C   0  0  0  0  0  0  0  0  0  0  0  0
   -1.2881    0.9563   -0.9928 C   0  0  0  0  0  0  0  0  0  0  0  0
   -0.4123    1.0408    0.2388 C   0  0  0  0  0  0  0  0  0  0  0  0
    2.4059    0.0979    0.0506 C   0  0  0  0  0  0  0  0  0  0  0  0
    3.5505   -0.4638   -0.7774 C   0  0  0  0  0  0  0  0  0  0  0  0
  1  8  2  0
  2  3  1  0
  2  5  1  0
  2  8  1  0
  3  4  1  0
  4  6  1  0
  5  9  1  0
  6  7  1  0
  7  8  1  0
  9 10  1  0
M  END
>  <PUBCHEM_COMPOUND_CID>  (1) 
7199

>  <PUBCHEM_CONFORMER_RMSD>  (1) 
0.6

>  <PUBCHEM_CONFORMER_DIVERSEORDER>  (1) 
1
4
6
5
11
7
9
10
2
3
8

>  <PUBCHEM_MMFF94_PARTIAL_CHARGES>  (1) 
4
1 -0.57
2 0.06
7 0.06
8 0.45

>  <PUBCHEM_EFFECTIVE_ROTOR_COUNT>  (1) 
3

>  <PUBCHEM_PHARMACOPHORE_FEATURES>  (1) 
3
1 1 acceptor
1 10 hydrophobe
6 2 3 4 6 7 8 rings

>  <PUBCHEM_HEAVY_ATOM_COUNT>  (1) 
10

>  <PUBCHEM_ATOM_DEF_STEREO_COUNT>  (1) 
0

>  <PUBCHEM_ATOM_UDEF_STEREO_COUNT>  (1) 
1

>  <PUBCHEM_BOND_DEF_STEREO_COUNT>  (1) 
0

>  <PUBCHEM_BOND_UDEF_STEREO_COUNT>  (1) 
0

>  <PUBCHEM_ISOTOPIC_ATOM_COUNT>  (1) 
0

>  <PUBCHEM_COMPONENT_COUNT>  (1) 
1

>  <PUBCHEM_CACTVS_TAUTO_COUNT>  (1) 
3

>  <PUBCHEM_CONFORMER_ID>  (1) 
00001C1F00000001

>  <PUBCHEM_MMFF94_ENERGY>  (1) 
5.7615

>  <PUBCHEM_FEATURE_SELFOVERLAP>  (1) 
15.223

>  <PUBCHEM_SHAPE_FINGERPRINT>  (1) 
12423570 1 12731416103718584497
12716758 59 18261382326273493114
12897270 3 18412823569105052606
13024252 1 17968108494500927755
14128692 85 18268429216444146055
15775835 57 17386006105312449414
161256 15 17974563903625042923
16945 1 18041270028320046903
20201158 50 18411133645413371862
20653085 51 16443348615842713054
21061003 4 18201169852653473506
23211744 25 18114444717713749065
2748010 2 17828469599019704487
29004967 10 18060128886019244027
369184 2 12901550156376278782

>  <PUBCHEM_SHAPE_MULTIPOLES>  (1) 
199.93
3.97
1.6
1.05
3.61
0.43
0
-0.89
-1.61
-0.6
0.29
-0.15
0.03
0.27

>  <PUBCHEM_SHAPE_SELFOVERLAP>  (1) 
386.707

>  <PUBCHEM_SHAPE_VOLUME>  (1) 
121

>  <PUBCHEM_COORDINATE_TYPE>  (1) 
2
5
10

$$$$
