7205
     RDKit          3D

 13 13  0  0  0  0  0  0  0  0999 V2000
    4.6628    0.9175   -0.4850 Cl  0  0  0  0  0  0  0  0  0  0  0  0
   -1.3162   -0.5853    0.8034 S   0  0  0  0  0  0  0  0  0  0  0  0
   -4.3759    0.5524   -1.3151 O   0  0  0  0  0  0  0  0  0  0  0  0
   -4.2116   -0.0076    0.8814 O   0  0  0  0  0  0  0  0  0  0  0  0
    1.2788   -1.1662   -0.0292 C   0  0  0  0  0  0  0  0  0  0  0  0
    0.3876   -0.1946    0.4264 C   0  0  0  0  0  0  0  0  0  0  0  0
    2.6011   -0.8225   -0.3112 C   0  0  0  0  0  0  0  0  0  0  0  0
    0.8184    1.1205    0.6002 C   0  0  0  0  0  0  0  0  0  0  0  0
    0.8647   -2.5887   -0.2316 C   0  0  0  0  0  0  0  0  0  0  0  0
    3.0319    0.4928   -0.1375 C   0  0  0  0  0  0  0  0  0  0  0  0
    2.1405    1.4642    0.3182 C   0  0  0  0  0  0  0  0  0  0  0  0
   -2.2013    0.5037   -0.3459 C   0  0  0  0  0  0  0  0  0  0  0  0
   -3.6809    0.3139   -0.1741 C   0  0  0  0  0  0  0  0  0  0  0  0
  1 10  1  0
  2  6  1  0
  2 12  1  0
  3 13  1  0
  4 13  2  0
  5  6  2  0
  5  7  1  0
  5  9  1  0
  6  8  1  0
  7 10  2  0
  8 11  2  0
 10 11  1  0
 12 13  1  0
M  END
>  <PUBCHEM_COMPOUND_CID>  (1) 
7205

>  <PUBCHEM_CONFORMER_RMSD>  (1) 
0.6

>  <PUBCHEM_CONFORMER_DIVERSEORDER>  (1) 
2
4
14
6
5
15
26
23
21
19
17
16
25
1
3
24
20
7
22
11
8
18
13
12
9
10

>  <PUBCHEM_MMFF94_PARTIAL_CHARGES>  (1) 
17
1 -0.18
10 0.18
11 -0.15
12 0.29
13 0.66
14 0.15
15 0.15
19 0.15
2 -0.33
22 0.5
3 -0.65
4 -0.57
5 -0.14
6 0.1
7 -0.15
8 -0.15
9 0.14

>  <PUBCHEM_EFFECTIVE_ROTOR_COUNT>  (1) 
3

>  <PUBCHEM_PHARMACOPHORE_FEATURES>  (1) 
4
1 3 acceptor
1 4 acceptor
3 3 4 13 anion
6 5 6 7 8 10 11 rings

>  <PUBCHEM_HEAVY_ATOM_COUNT>  (1) 
13

>  <PUBCHEM_ATOM_DEF_STEREO_COUNT>  (1) 
0

>  <PUBCHEM_ATOM_UDEF_STEREO_COUNT>  (1) 
0

>  <PUBCHEM_BOND_DEF_STEREO_COUNT>  (1) 
0

>  <PUBCHEM_BOND_UDEF_STEREO_COUNT>  (1) 
0

>  <PUBCHEM_ISOTOPIC_ATOM_COUNT>  (1) 
0

>  <PUBCHEM_COMPONENT_COUNT>  (1) 
1

>  <PUBCHEM_CACTVS_TAUTO_COUNT>  (1) 
1

>  <PUBCHEM_CONFORMER_ID>  (1) 
00001C2500000002

>  <PUBCHEM_MMFF94_ENERGY>  (1) 
28.4671

>  <PUBCHEM_FEATURE_SELFOVERLAP>  (1) 
20.355

>  <PUBCHEM_SHAPE_FINGERPRINT>  (1) 
11031198 65 18410015433281581255
11401426 45 18201717384159540192
11471102 20 18412261718425765140
11543360 7 15410898500163031504
12119455 92 18260542342619015990
12251169 10 7925909292354598977
12932764 1 17346306073591953673
13380535 76 18408324397336003650
14251717 144 18342735187170076350
14576447 43 17774711043690061743
14911166 2 18272098223049590252
14943859 89 17676487280577028392
14993402 34 17489870444606628700
15219456 202 18260552212258832931
15775835 57 18342739641072105598
16945 1 18201454609538878280
18186145 218 18202281441629078465
187816 3 17988651813326570240
20201158 50 18409450258682800219
20279233 1 17968096409048467403
20281407 28 12391517494313277265
20606313 2 18411135827267190600
20645477 70 18340481145932212439
21119208 17 17131837576886581397
21499 59 18411699915218218398
21501502 16 18195811756271223680
231179 274 17967529077790664604
23402539 116 17530958115930930486
23402655 69 18342735183291905437
23557571 272 17603308150746201005
23598291 2 17702385048745769471
25 1 18411420609120844938
257057 1 17399791606008560114
2748010 2 17769102581401438840
3060560 45 18342173371425430270
3071541 37 18408610236495255070
366044 4 18410857694102077490
4072396 5 18337094697521214042
58051976 378 18342176669664842796
81539 233 18259984860069609930

>  <PUBCHEM_SHAPE_MULTIPOLES>  (1) 
261.51
7.99
1.74
0.91
4.75
1.12
-0.05
-3.08
-1.92
-1.11
-0.07
0.59
-0.08
0.35

>  <PUBCHEM_SHAPE_SELFOVERLAP>  (1) 
513.881

>  <PUBCHEM_SHAPE_VOLUME>  (1) 
158.4

>  <PUBCHEM_COORDINATE_TYPE>  (1) 
2
5
10

$$$$
