7211
     RDKit          3D

 10  9  0  0  1  0  0  0  0  0999 V2000
   -0.2249    1.2766    1.3858 O   0  0  0  0  0  0  0  0  0  0  0  0
    1.5171    2.3210   -0.3459 O   0  0  0  0  0  0  0  0  0  0  0  0
    1.3812   -0.0778    0.1147 C   0  0  0  0  0  0  0  0  0  0  0  0
   -0.0469    0.0304    0.7168 C   0  0  0  0  0  0  0  0  0  0  0  0
   -1.1657   -0.1581   -0.3208 C   0  0  0  0  0  0  0  0  0  0  0  0
    1.6364   -1.4570   -0.5412 C   0  0  0  0  0  0  0  0  0  0  0  0
    1.7070    1.0305   -0.9058 C   0  0  0  0  0  0  0  0  0  0  0  0
   -2.5827   -0.0620    0.2598 C   0  0  0  0  0  0  0  0  0  0  0  0
    1.4584   -2.6330    0.4093 C   0  0  0  0  0  0  0  0  0  0  0  0
   -3.6798   -0.2705   -0.7727 C   0  0  0  0  0  0  0  0  0  0  0  0
  1  4  1  0
  2  7  1  0
  3  4  1  0
  3  6  1  0
  3  7  1  0
  4  5  1  0
  5  8  1  0
  6  9  1  0
  8 10  1  0
M  END
>  <PUBCHEM_COMPOUND_CID>  (1) 
7211

>  <PUBCHEM_CONFORMER_RMSD>  (1) 
0.6

>  <PUBCHEM_CONFORMER_DIVERSEORDER>  (1) 
3
32
7
117
94
31
66
90
112
14
44
108
54
71
11
56
17
109
121
95
104
72
120
110
61
107
76
48
22
106
75
99
67
128
42
116
65
70
60
53
5
103
126
87
100
10
118
35
77
124
15
115
105
93
102
51
101
85
55
52
58
125
62
8
4
45
59
39
69
40
114
25
37
122
86
88
84
96
19
41
2
20
68
113
83
127
24
27
21
79
1
47
74
63
119
50
13
46
78
23
18
26
123
80
9
81
36
43
29
12
111
57
34
33
16
97
82
73
28
92
91
6
38
30
89
98
49
64

>  <PUBCHEM_MMFF94_PARTIAL_CHARGES>  (1) 
6
1 -0.68
2 -0.68
24 0.4
28 0.4
4 0.28
7 0.28

>  <PUBCHEM_EFFECTIVE_ROTOR_COUNT>  (1) 
5

>  <PUBCHEM_PHARMACOPHORE_FEATURES>  (1) 
6
1 1 acceptor
1 1 donor
1 10 hydrophobe
1 2 acceptor
1 2 donor
1 9 hydrophobe

>  <PUBCHEM_HEAVY_ATOM_COUNT>  (1) 
10

>  <PUBCHEM_ATOM_DEF_STEREO_COUNT>  (1) 
0

>  <PUBCHEM_ATOM_UDEF_STEREO_COUNT>  (1) 
2

>  <PUBCHEM_BOND_DEF_STEREO_COUNT>  (1) 
0

>  <PUBCHEM_BOND_UDEF_STEREO_COUNT>  (1) 
0

>  <PUBCHEM_ISOTOPIC_ATOM_COUNT>  (1) 
0

>  <PUBCHEM_COMPONENT_COUNT>  (1) 
1

>  <PUBCHEM_CACTVS_TAUTO_COUNT>  (1) 
1

>  <PUBCHEM_CONFORMER_ID>  (1) 
00001C2B00000003

>  <PUBCHEM_MMFF94_ENERGY>  (1) 
12.1305

>  <PUBCHEM_FEATURE_SELFOVERLAP>  (1) 
30.462

>  <PUBCHEM_SHAPE_FINGERPRINT>  (1) 
1 1 18335701710287439724
12897270 3 18335989773817997837
12932741 1 17458352935581034867
12932764 1 17846775256789375215
14128692 85 18200316502586212319
18185500 45 18196668293198923810
20645477 70 18412541007976779271
20653091 64 18341897346419495483
20711985 344 17474117492328640726
20820808 20 18267869569458024153
20871998 184 16751296285065574970
21040471 1 17977671136391210180
23211744 25 17697032904945228421
23552333 60 18272655623177238906
23552423 10 18412549777830024699
3248919 1 18335414682308392387
528862 383 18411693287999486047

>  <PUBCHEM_SHAPE_MULTIPOLES>  (1) 
194.06
4.09
2.2
1.02
4.97
0.27
0.13
0.9
-1.18
-2.2
0.05
0.07
-0.2
-0.41

>  <PUBCHEM_SHAPE_SELFOVERLAP>  (1) 
348.483

>  <PUBCHEM_SHAPE_VOLUME>  (1) 
125.7

>  <PUBCHEM_COORDINATE_TYPE>  (1) 
2
5
10

$$$$
