7227
     RDKit          3D

 11 12  0  0  0  0  0  0  0  0999 V2000
   -1.9036    1.3779   -0.0002 S   0  0  0  0  0  0  0  0  0  0  0  0
   -1.4138   -1.1543    0.0002 N   0  0  0  0  0  0  0  0  0  0  0  0
   -0.1865   -0.5077    0.0002 C   0  0  0  0  0  0  0  0  0  0  0  0
   -0.2502    0.8891    0.0000 C   0  0  0  0  0  0  0  0  0  0  0  0
    2.2381   -0.3426    0.0003 C   0  0  0  0  0  0  0  0  0  0  0  0
    1.0818   -1.1281    0.0003 C   0  0  0  0  0  0  0  0  0  0  0  0
    0.9071    1.6841    0.0000 C   0  0  0  0  0  0  0  0  0  0  0  0
    2.1496    1.0451    0.0002 C   0  0  0  0  0  0  0  0  0  0  0  0
   -2.3792   -0.2650    0.0002 C   0  0  0  0  0  0  0  0  0  0  0  0
    3.5773   -1.0011   -0.0007 C   0  0  0  0  0  0  0  0  0  0  0  0
   -3.8207   -0.5974   -0.0004 C   0  0  0  0  0  0  0  0  0  0  0  0
  1  4  1  0
  1  9  1  0
  2  3  1  0
  2  9  2  0
  3  4  2  0
  3  6  1  0
  4  7  1  0
  5  6  2  0
  5  8  1  0
  5 10  1  0
  7  8  2  0
  9 11  1  0
M  END
>  <PUBCHEM_COMPOUND_CID>  (1) 
7227

>  <PUBCHEM_CONFORMER_RMSD>  (1) 
0.4

>  <PUBCHEM_CONFORMER_DIVERSEORDER>  (1) 
1

>  <PUBCHEM_MMFF94_PARTIAL_CHARGES>  (1) 
14
1 -0.08
10 0.14
11 0.18
12 0.15
13 0.15
14 0.15
2 -0.57
3 0.23
4 0.04
5 -0.14
6 -0.15
7 -0.15
8 -0.15
9 0.2

>  <PUBCHEM_EFFECTIVE_ROTOR_COUNT>  (1) 
0

>  <PUBCHEM_PHARMACOPHORE_FEATURES>  (1) 
3
1 2 acceptor
5 1 2 3 4 9 rings
6 3 4 5 6 7 8 rings

>  <PUBCHEM_HEAVY_ATOM_COUNT>  (1) 
11

>  <PUBCHEM_ATOM_DEF_STEREO_COUNT>  (1) 
0

>  <PUBCHEM_ATOM_UDEF_STEREO_COUNT>  (1) 
0

>  <PUBCHEM_BOND_DEF_STEREO_COUNT>  (1) 
0

>  <PUBCHEM_BOND_UDEF_STEREO_COUNT>  (1) 
0

>  <PUBCHEM_ISOTOPIC_ATOM_COUNT>  (1) 
0

>  <PUBCHEM_COMPONENT_COUNT>  (1) 
1

>  <PUBCHEM_CACTVS_TAUTO_COUNT>  (1) 
1

>  <PUBCHEM_CONFORMER_ID>  (1) 
00001C3B00000001

>  <PUBCHEM_MMFF94_ENERGY>  (1) 
19.5679

>  <PUBCHEM_FEATURE_SELFOVERLAP>  (1) 
15.294

>  <PUBCHEM_SHAPE_FINGERPRINT>  (1) 
10130415 120 18408321085847250402
10219947 1 18343866627647969327
11206711 2 18335138648585929565
11471102 20 18410288142641432501
11769659 78 18412820300450323895
12032990 46 18411142406977882950
14128692 85 18411984663017965836
14325111 11 18410855464465625921
16945 1 18410575106159027397
17844478 74 18040722484857544909
193761 8 17762056940449044934
200 152 18059844065906503749
20201158 50 18410012121883102791
20645477 70 18411133662867775135
20871998 184 18130503016170228516
20871998 22 18199757951022271646
21040471 1 18050286174129003872
21501502 16 18410580573695015493
21501925 9 18410282619239591418
23402539 116 18272640230378369191
23402655 69 18340758296066545877
23463225 33 18337110073129651798
23552423 10 18260830435834413620
23559900 14 18197212539414017254
2748010 2 18410567375344833100
369184 2 14908176426156092222
5084963 1 18341894095139736977
528886 8 18339357586238824234
7364860 26 18270400624077524952
8809292 202 18187370964592832675

>  <PUBCHEM_SHAPE_MULTIPOLES>  (1) 
225.24
5.24
1.62
0.62
0.86
0.45
0
-1.67
0
-0.16
0
0.01
0.02
0

>  <PUBCHEM_SHAPE_SELFOVERLAP>  (1) 
472.441

>  <PUBCHEM_SHAPE_VOLUME>  (1) 
130.2

>  <PUBCHEM_COORDINATE_TYPE>  (1) 
2
5
10

$$$$
