7234
     RDKit          3D

 13 14  0  0  1  0  0  0  0  0999 V2000
   -1.3518    0.0064    0.4422 O   0  0  0  0  0  0  0  0  0  0  0  0
   -2.8546    1.1885   -0.8557 O   0  0  0  0  0  0  0  0  0  0  0  0
    1.4808   -0.9531    0.3816 C   0  0  0  0  0  0  0  0  0  0  0  0
    0.9698    0.4569    0.7803 C   0  0  0  0  0  0  0  0  0  0  0  0
    3.2639    0.3385   -0.0013 C   0  0  0  0  0  0  0  0  0  0  0  0
    2.9292   -0.8685    0.8807 C   0  0  0  0  0  0  0  0  0  0  0  0
    2.1997    1.3616    0.4568 C   0  0  0  0  0  0  0  0  0  0  0  0
    1.7553   -0.9977   -1.1038 C   0  0  0  0  0  0  0  0  0  0  0  0
    2.8221   -0.2182   -1.3338 C   0  0  0  0  0  0  0  0  0  0  0  0
   -0.3105    0.8998    0.0877 C   0  0  0  0  0  0  0  0  0  0  0  0
   -2.5773    0.2687   -0.1024 C   0  0  0  0  0  0  0  0  0  0  0  0
   -3.5247   -0.7578    0.3791 C   0  0  0  0  0  0  0  0  0  0  0  0
   -4.8020   -0.7250   -0.0114 C   0  0  0  0  0  0  0  0  0  0  0  0
  1 10  1  0
  1 11  1  0
  2 11  2  0
  3  4  1  0
  3  6  1  0
  3  8  1  0
  4  7  1  0
  4 10  1  0
  5  6  1  0
  5  7  1  0
  5  9  1  0
  8  9  2  0
 11 12  1  0
 12 13  2  0
M  END
>  <PUBCHEM_COMPOUND_CID>  (1) 
7234

>  <PUBCHEM_CONFORMER_RMSD>  (1) 
0.6

>  <PUBCHEM_CONFORMER_DIVERSEORDER>  (1) 
1
89
59
69
49
43
76
63
68
74
71
100
45
73
4
101
92
95
64
70
56
72
54
94
78
2
66
60
31
25
58
48
103
88
47
97
3
102
98
22
53
75
38
46
57
96
91
77
99
93
65
15
44
62
67
32
55
16
81
37
90
39
82
24
18
23
35
8
12
87
61
50
28
11
51
34
10
36
7
86
27
79
9
26
42
21
52
6
33
84
5
17
80
13
29
41
14
85
30
19
83
20
40

>  <PUBCHEM_MMFF94_PARTIAL_CHARGES>  (1) 
15
1 -0.43
10 0.28
11 0.71
12 -0.14
13 -0.3
2 -0.57
21 0.15
22 0.15
25 0.15
26 0.15
27 0.15
3 0.14
5 0.14
8 -0.29
9 -0.29

>  <PUBCHEM_EFFECTIVE_ROTOR_COUNT>  (1) 
4.6

>  <PUBCHEM_PHARMACOPHORE_FEATURES>  (1) 
3
1 13 hydrophobe
1 2 acceptor
7 3 4 5 6 7 8 9 rings

>  <PUBCHEM_HEAVY_ATOM_COUNT>  (1) 
13

>  <PUBCHEM_ATOM_DEF_STEREO_COUNT>  (1) 
0

>  <PUBCHEM_ATOM_UDEF_STEREO_COUNT>  (1) 
3

>  <PUBCHEM_BOND_DEF_STEREO_COUNT>  (1) 
0

>  <PUBCHEM_BOND_UDEF_STEREO_COUNT>  (1) 
0

>  <PUBCHEM_ISOTOPIC_ATOM_COUNT>  (1) 
0

>  <PUBCHEM_COMPONENT_COUNT>  (1) 
1

>  <PUBCHEM_CACTVS_TAUTO_COUNT>  (1) 
1

>  <PUBCHEM_CONFORMER_ID>  (1) 
00001C4200000001

>  <PUBCHEM_MMFF94_ENERGY>  (1) 
45.5745

>  <PUBCHEM_FEATURE_SELFOVERLAP>  (1) 
15.223

>  <PUBCHEM_SHAPE_FINGERPRINT>  (1) 
12162725 195 16370728114690117573
12251169 10 13110963115343468363
12616999 72 18271818933746944998
12932764 1 18334296452901955993
13296908 3 18130790023244235637
13571099 22 11314300637954307744
13705890 14 18342460313911326038
14144814 61 14477242652391873003
14252887 29 17847067687452425370
14344429 50 18410291428423295608
16945 1 17704068486984105024
18186145 218 18411140203860003361
190213 19 17203892959464530475
20201158 50 18343023289392152971
20279233 1 18412259532582869075
20645477 70 17917427580140349159
22485316 2 18409444808780803595
22892500 29 12685092622273470166
23048698 100 14476963393560589787
23402539 116 17240755168843192468
23402655 69 18408038503127822781
23557571 272 18114460085028015957
3248919 1 17918272021949578633
581208 293 17704069611780292007
94968 8 18272657852254800415

>  <PUBCHEM_SHAPE_MULTIPOLES>  (1) 
255.8
7.64
1.24
1.05
9.03
0.12
0.17
-1.45
0.2
-0.29
0.03
-0.56
-0.13
0.42

>  <PUBCHEM_SHAPE_SELFOVERLAP>  (1) 
538.906

>  <PUBCHEM_SHAPE_VOLUME>  (1) 
148.3

>  <PUBCHEM_COORDINATE_TYPE>  (1) 
2
5
10

$$$$
