7236
     RDKit          3D

  8  8  0  0  0  0  0  0  0  0999 V2000
    2.4069   -1.2845    0.0001 Br  0  0  0  0  0  0  0  0  0  0  0  0
    0.4184    0.8029   -0.0001 C   0  0  0  0  0  0  0  0  0  0  0  0
    0.6489   -0.5728    0.0000 C   0  0  0  0  0  0  0  0  0  0  0  0
   -0.8882    1.2911    0.0000 C   0  0  0  0  0  0  0  0  0  0  0  0
    1.5396    1.7916    0.0000 C   0  0  0  0  0  0  0  0  0  0  0  0
   -0.4272   -1.4602   -0.0001 C   0  0  0  0  0  0  0  0  0  0  0  0
   -1.9644    0.4037    0.0001 C   0  0  0  0  0  0  0  0  0  0  0  0
   -1.7339   -0.9719    0.0000 C   0  0  0  0  0  0  0  0  0  0  0  0
  1  3  1  0
  2  3  2  0
  2  4  1  0
  2  5  1  0
  3  6  1  0
  4  7  2  0
  6  8  2  0
  7  8  1  0
M  END
>  <PUBCHEM_COMPOUND_CID>  (1) 
7236

>  <PUBCHEM_CONFORMER_RMSD>  (1) 
0.4

>  <PUBCHEM_CONFORMER_DIVERSEORDER>  (1) 
1

>  <PUBCHEM_MMFF94_PARTIAL_CHARGES>  (1) 
12
1 -0.11
13 0.15
14 0.15
15 0.15
2 -0.14
3 0.11
4 -0.15
5 0.14
6 -0.15
7 -0.15
8 -0.15
9 0.15

>  <PUBCHEM_EFFECTIVE_ROTOR_COUNT>  (1) 
0

>  <PUBCHEM_PHARMACOPHORE_FEATURES>  (1) 
2
1 1 hydrophobe
6 2 3 4 6 7 8 rings

>  <PUBCHEM_HEAVY_ATOM_COUNT>  (1) 
8

>  <PUBCHEM_ATOM_DEF_STEREO_COUNT>  (1) 
0

>  <PUBCHEM_ATOM_UDEF_STEREO_COUNT>  (1) 
0

>  <PUBCHEM_BOND_DEF_STEREO_COUNT>  (1) 
0

>  <PUBCHEM_BOND_UDEF_STEREO_COUNT>  (1) 
0

>  <PUBCHEM_ISOTOPIC_ATOM_COUNT>  (1) 
0

>  <PUBCHEM_COMPONENT_COUNT>  (1) 
1

>  <PUBCHEM_CACTVS_TAUTO_COUNT>  (1) 
1

>  <PUBCHEM_CONFORMER_ID>  (1) 
00001C4400000001

>  <PUBCHEM_MMFF94_ENERGY>  (1) 
18.8041

>  <PUBCHEM_FEATURE_SELFOVERLAP>  (1) 
10.148

>  <PUBCHEM_SHAPE_FINGERPRINT>  (1) 
12423570 1 12291076471276196373
16714656 1 18122908625017293278
16945 1 18338517430574879527
18185500 45 18192712245824540898
21040471 1 18194401319149704737
23552423 10 18261958564934758502
241688 4 18408602535085942217
2748010 2 18409447028888395159
29004967 10 18267871588013382594
5084963 1 18201432558612499011

>  <PUBCHEM_SHAPE_MULTIPOLES>  (1) 
170.58
2.84
1.97
0.63
0.82
0.5
0
-0.69
0
0.45
0
0.04
-0.02
0

>  <PUBCHEM_SHAPE_SELFOVERLAP>  (1) 
336.313

>  <PUBCHEM_SHAPE_VOLUME>  (1) 
103.7

>  <PUBCHEM_COORDINATE_TYPE>  (1) 
2
5
10

$$$$
