7240
     RDKit          3D

  8  8  0  0  0  0  0  0  0  0999 V2000
    2.2401   -1.2856    0.0001 Cl  0  0  0  0  0  0  0  0  0  0  0  0
    1.5630    1.6819   -0.0003 N   0  0  0  0  0  0  0  0  0  0  0  0
    0.4677    0.7896    0.0001 C   0  0  0  0  0  0  0  0  0  0  0  0
    0.6580   -0.5922    0.0002 C   0  0  0  0  0  0  0  0  0  0  0  0
   -0.8242    1.3157    0.0001 C   0  0  0  0  0  0  0  0  0  0  0  0
   -0.4435   -1.4479   -0.0001 C   0  0  0  0  0  0  0  0  0  0  0  0
   -1.9258    0.4601    0.0000 C   0  0  0  0  0  0  0  0  0  0  0  0
   -1.7354   -0.9217   -0.0001 C   0  0  0  0  0  0  0  0  0  0  0  0
  1  4  1  0
  2  3  1  0
  3  4  2  0
  3  5  1  0
  4  6  1  0
  5  7  2  0
  6  8  2  0
  7  8  1  0
M  END
>  <PUBCHEM_COMPOUND_CID>  (1) 
7240

>  <PUBCHEM_CONFORMER_RMSD>  (1) 
0.4

>  <PUBCHEM_CONFORMER_DIVERSEORDER>  (1) 
1

>  <PUBCHEM_MMFF94_PARTIAL_CHARGES>  (1) 
14
1 -0.18
10 0.15
11 0.15
12 0.15
13 0.4
14 0.4
2 -0.9
3 0.1
4 0.18
5 -0.15
6 -0.15
7 -0.15
8 -0.15
9 0.15

>  <PUBCHEM_EFFECTIVE_ROTOR_COUNT>  (1) 
0

>  <PUBCHEM_PHARMACOPHORE_FEATURES>  (1) 
3
1 2 cation
1 2 donor
6 3 4 5 6 7 8 rings

>  <PUBCHEM_HEAVY_ATOM_COUNT>  (1) 
8

>  <PUBCHEM_ATOM_DEF_STEREO_COUNT>  (1) 
0

>  <PUBCHEM_ATOM_UDEF_STEREO_COUNT>  (1) 
0

>  <PUBCHEM_BOND_DEF_STEREO_COUNT>  (1) 
0

>  <PUBCHEM_BOND_UDEF_STEREO_COUNT>  (1) 
0

>  <PUBCHEM_ISOTOPIC_ATOM_COUNT>  (1) 
0

>  <PUBCHEM_COMPONENT_COUNT>  (1) 
1

>  <PUBCHEM_CACTVS_TAUTO_COUNT>  (1) 
1

>  <PUBCHEM_CONFORMER_ID>  (1) 
00001C4800000001

>  <PUBCHEM_MMFF94_ENERGY>  (1) 
28.0129

>  <PUBCHEM_FEATURE_SELFOVERLAP>  (1) 
15.223

>  <PUBCHEM_SHAPE_FINGERPRINT>  (1) 
16714656 1 18122909720191768750
16945 1 18338516318262739399
18185500 45 18192430757973503867
21040471 1 18266458896018287009
23552423 10 18261677077052092414
2748010 2 18409728499601806527
29004967 10 18266465299672139722
5084963 1 18201712916924073483

>  <PUBCHEM_SHAPE_MULTIPOLES>  (1) 
161.52
2.61
1.84
0.61
0.67
0.37
0
-0.5
0
0.28
0
0
-0.02
0

>  <PUBCHEM_SHAPE_SELFOVERLAP>  (1) 
325.477

>  <PUBCHEM_SHAPE_VOLUME>  (1) 
94.6

>  <PUBCHEM_COORDINATE_TYPE>  (1) 
2
5
10

$$$$
