7242
     RDKit          3D

  8  8  0  0  0  0  0  0  0  0999 V2000
    1.7522   -1.4942    0.0011 N   0  0  0  0  0  0  0  0  0  0  0  0
    0.6204    0.6679   -0.0002 C   0  0  0  0  0  0  0  0  0  0  0  0
    0.5671   -0.7259   -0.0005 C   0  0  0  0  0  0  0  0  0  0  0  0
   -0.5601    1.4110    0.0004 C   0  0  0  0  0  0  0  0  0  0  0  0
   -0.6666   -1.3766   -0.0007 C   0  0  0  0  0  0  0  0  0  0  0  0
    1.9279    1.3910   -0.0005 C   0  0  0  0  0  0  0  0  0  0  0  0
   -1.7939    0.7603    0.0005 C   0  0  0  0  0  0  0  0  0  0  0  0
   -1.8471   -0.6335   -0.0001 C   0  0  0  0  0  0  0  0  0  0  0  0
  1  3  1  0
  2  3  2  0
  2  4  1  0
  2  6  1  0
  3  5  1  0
  4  7  2  0
  5  8  2  0
  7  8  1  0
M  END
>  <PUBCHEM_COMPOUND_CID>  (1) 
7242

>  <PUBCHEM_CONFORMER_RMSD>  (1) 
0.4

>  <PUBCHEM_CONFORMER_DIVERSEORDER>  (1) 
1

>  <PUBCHEM_MMFF94_PARTIAL_CHARGES>  (1) 
14
1 -0.9
10 0.15
14 0.15
15 0.15
16 0.4
17 0.4
2 -0.14
3 0.1
4 -0.15
5 -0.15
6 0.14
7 -0.15
8 -0.15
9 0.15

>  <PUBCHEM_EFFECTIVE_ROTOR_COUNT>  (1) 
0

>  <PUBCHEM_PHARMACOPHORE_FEATURES>  (1) 
3
1 1 cation
1 1 donor
6 2 3 4 5 7 8 rings

>  <PUBCHEM_HEAVY_ATOM_COUNT>  (1) 
8

>  <PUBCHEM_ATOM_DEF_STEREO_COUNT>  (1) 
0

>  <PUBCHEM_ATOM_UDEF_STEREO_COUNT>  (1) 
0

>  <PUBCHEM_BOND_DEF_STEREO_COUNT>  (1) 
0

>  <PUBCHEM_BOND_UDEF_STEREO_COUNT>  (1) 
0

>  <PUBCHEM_ISOTOPIC_ATOM_COUNT>  (1) 
0

>  <PUBCHEM_COMPONENT_COUNT>  (1) 
1

>  <PUBCHEM_CACTVS_TAUTO_COUNT>  (1) 
1

>  <PUBCHEM_CONFORMER_ID>  (1) 
00001C4A00000001

>  <PUBCHEM_MMFF94_ENERGY>  (1) 
30.1316

>  <PUBCHEM_FEATURE_SELFOVERLAP>  (1) 
15.223

>  <PUBCHEM_SHAPE_FINGERPRINT>  (1) 
12423570 1 9038717460152992881
16714656 1 17977670040931976092
16945 1 18266741474812070785
18185500 45 18196369449268830239
21040471 1 18410855511736561989
23552423 10 18333734636730307942
2748010 2 18410012122062165197
29004967 10 18116721900784166817

>  <PUBCHEM_SHAPE_MULTIPOLES>  (1) 
159.66
2.44
1.81
0.61
0.22
0.23
0
-0.26
0
0.36
0
-0.02
-0.02
0

>  <PUBCHEM_SHAPE_SELFOVERLAP>  (1) 
328.852

>  <PUBCHEM_SHAPE_VOLUME>  (1) 
92.9

>  <PUBCHEM_COORDINATE_TYPE>  (1) 
2
5
10

$$$$
