7243
     RDKit          3D

  8  8  0  0  0  0  0  0  0  0999 V2000
    1.8147    1.4238   -0.0007 N   0  0  0  0  0  0  0  0  0  0  0  0
    1.8153   -1.4234    0.0000 N   0  0  0  0  0  0  0  0  0  0  0  0
    0.6029    0.6975    0.0005 C   0  0  0  0  0  0  0  0  0  0  0  0
    0.6031   -0.6973    0.0004 C   0  0  0  0  0  0  0  0  0  0  0  0
   -0.6053    1.3948    0.0003 C   0  0  0  0  0  0  0  0  0  0  0  0
   -0.6047   -1.3949   -0.0002 C   0  0  0  0  0  0  0  0  0  0  0  0
   -1.8132    0.6972   -0.0001 C   0  0  0  0  0  0  0  0  0  0  0  0
   -1.8128   -0.6977   -0.0004 C   0  0  0  0  0  0  0  0  0  0  0  0
  1  3  1  0
  2  4  1  0
  3  4  2  0
  3  5  1  0
  4  6  1  0
  5  7  2  0
  6  8  2  0
  7  8  1  0
M  END
>  <PUBCHEM_COMPOUND_CID>  (1) 
7243

>  <PUBCHEM_CONFORMER_RMSD>  (1) 
0.4

>  <PUBCHEM_CONFORMER_DIVERSEORDER>  (1) 
1

>  <PUBCHEM_MMFF94_PARTIAL_CHARGES>  (1) 
16
1 -0.9
10 0.15
11 0.15
12 0.15
13 0.4
14 0.4
15 0.4
16 0.4
2 -0.9
3 0.1
4 0.1
5 -0.15
6 -0.15
7 -0.15
8 -0.15
9 0.15

>  <PUBCHEM_EFFECTIVE_ROTOR_COUNT>  (1) 
0

>  <PUBCHEM_PHARMACOPHORE_FEATURES>  (1) 
5
1 1 cation
1 1 donor
1 2 cation
1 2 donor
6 3 4 5 6 7 8 rings

>  <PUBCHEM_HEAVY_ATOM_COUNT>  (1) 
8

>  <PUBCHEM_ATOM_DEF_STEREO_COUNT>  (1) 
0

>  <PUBCHEM_ATOM_UDEF_STEREO_COUNT>  (1) 
0

>  <PUBCHEM_BOND_DEF_STEREO_COUNT>  (1) 
0

>  <PUBCHEM_BOND_UDEF_STEREO_COUNT>  (1) 
0

>  <PUBCHEM_ISOTOPIC_ATOM_COUNT>  (1) 
0

>  <PUBCHEM_COMPONENT_COUNT>  (1) 
1

>  <PUBCHEM_CACTVS_TAUTO_COUNT>  (1) 
1

>  <PUBCHEM_CONFORMER_ID>  (1) 
00001C4B00000001

>  <PUBCHEM_MMFF94_ENERGY>  (1) 
40.3762

>  <PUBCHEM_FEATURE_SELFOVERLAP>  (1) 
25.377

>  <PUBCHEM_SHAPE_FINGERPRINT>  (1) 
16714656 1 17907020569075543694
18185500 45 18124311863831418871
21040471 1 18338516447074893477
23552423 10 18333454265539112846
2748010 2 18410012134968127109
29004967 10 18116721909405704457

>  <PUBCHEM_SHAPE_MULTIPOLES>  (1) 
154.67
2.32
1.78
0.6
0.1
0
0
0
0
0.37
0
-0.04
0
0

>  <PUBCHEM_SHAPE_SELFOVERLAP>  (1) 
320.644

>  <PUBCHEM_SHAPE_VOLUME>  (1) 
88.8

>  <PUBCHEM_COORDINATE_TYPE>  (1) 
2
5
10

$$$$
