7256
     RDKit          3D

  9  9  0  0  0  0  0  0  0  0999 V2000
    1.8458   -2.0656   -0.0003 Cl  0  0  0  0  0  0  0  0  0  0  0  0
    2.7627    1.0376   -0.0002 Cl  0  0  0  0  0  0  0  0  0  0  0  0
   -1.6136   -0.0830    0.0002 C   0  0  0  0  0  0  0  0  0  0  0  0
   -0.6529   -1.0943    0.0004 C   0  0  0  0  0  0  0  0  0  0  0  0
   -1.2182    1.2546   -0.0001 C   0  0  0  0  0  0  0  0  0  0  0  0
   -3.0636   -0.4316   -0.0004 C   0  0  0  0  0  0  0  0  0  0  0  0
    0.7032   -0.7680    0.0002 C   0  0  0  0  0  0  0  0  0  0  0  0
    0.1380    1.5809    0.0000 C   0  0  0  0  0  0  0  0  0  0  0  0
    1.0987    0.5695    0.0002 C   0  0  0  0  0  0  0  0  0  0  0  0
  1  7  1  0
  2  9  1  0
  3  4  2  0
  3  5  1  0
  3  6  1  0
  4  7  1  0
  5  8  2  0
  7  9  2  0
  8  9  1  0
M  END
>  <PUBCHEM_COMPOUND_CID>  (1) 
7256

>  <PUBCHEM_CONFORMER_RMSD>  (1) 
0.4

>  <PUBCHEM_CONFORMER_DIVERSEORDER>  (1) 
1

>  <PUBCHEM_MMFF94_PARTIAL_CHARGES>  (1) 
12
1 -0.18
10 0.15
11 0.15
15 0.15
2 -0.18
3 -0.14
4 -0.15
5 -0.15
6 0.14
7 0.18
8 -0.15
9 0.18

>  <PUBCHEM_EFFECTIVE_ROTOR_COUNT>  (1) 
0

>  <PUBCHEM_PHARMACOPHORE_FEATURES>  (1) 
1
6 3 4 5 7 8 9 rings

>  <PUBCHEM_HEAVY_ATOM_COUNT>  (1) 
9

>  <PUBCHEM_ATOM_DEF_STEREO_COUNT>  (1) 
0

>  <PUBCHEM_ATOM_UDEF_STEREO_COUNT>  (1) 
0

>  <PUBCHEM_BOND_DEF_STEREO_COUNT>  (1) 
0

>  <PUBCHEM_BOND_UDEF_STEREO_COUNT>  (1) 
0

>  <PUBCHEM_ISOTOPIC_ATOM_COUNT>  (1) 
0

>  <PUBCHEM_COMPONENT_COUNT>  (1) 
1

>  <PUBCHEM_CACTVS_TAUTO_COUNT>  (1) 
1

>  <PUBCHEM_CONFORMER_ID>  (1) 
00001C5800000001

>  <PUBCHEM_MMFF94_ENERGY>  (1) 
18.9875

>  <PUBCHEM_FEATURE_SELFOVERLAP>  (1) 
5.074

>  <PUBCHEM_SHAPE_FINGERPRINT>  (1) 
12423570 1 12785345594177588022
14128692 85 18267873770030855254
161256 15 18339084791602021870
16945 1 18338517542238773957
18185500 45 18341046423351401223
193761 8 18194682562103346308
20645477 70 18411411792365746559
21040471 1 17762055845026844513
23235685 24 18336823211936995273
23402655 69 18340187615525634229
23552423 10 18261960622145062862
241688 4 18119813508237843184
2748010 2 18337669689919452237
29004967 10 18334299798634032873
5084963 1 18128811950049044771
528862 383 18334568049401326722
68250623 7 18268719307114611833

>  <PUBCHEM_SHAPE_MULTIPOLES>  (1) 
188.96
3.64
1.95
0.63
0.73
0.41
0
0.16
0
-1.01
0
-0.02
0
0

>  <PUBCHEM_SHAPE_SELFOVERLAP>  (1) 
372.404

>  <PUBCHEM_SHAPE_VOLUME>  (1) 
110.2

>  <PUBCHEM_COORDINATE_TYPE>  (1) 
2
5
10

$$$$
