7263
     RDKit          3D

  9  9  0  0  0  0  0  0  0  0999 V2000
    3.2231   -0.3897   -0.0001 Cl  0  0  0  0  0  0  0  0  0  0  0  0
   -1.6777   -1.8736   -0.0001 N   0  0  0  0  0  0  0  0  0  0  0  0
   -2.5736    0.8289   -0.0002 N   0  0  0  0  0  0  0  0  0  0  0  0
   -0.7557   -0.8031    0.0001 C   0  0  0  0  0  0  0  0  0  0  0  0
   -1.1948    0.5209    0.0000 C   0  0  0  0  0  0  0  0  0  0  0  0
    0.6104   -1.0849    0.0002 C   0  0  0  0  0  0  0  0  0  0  0  0
   -0.2677    1.5630    0.0000 C   0  0  0  0  0  0  0  0  0  0  0  0
    1.5375   -0.0427   -0.0001 C   0  0  0  0  0  0  0  0  0  0  0  0
    1.0985    1.2812    0.0001 C   0  0  0  0  0  0  0  0  0  0  0  0
  1  8  1  0
  2  4  1  0
  3  5  1  0
  4  5  2  0
  4  6  1  0
  5  7  1  0
  6  8  2  0
  7  9  2  0
  8  9  1  0
M  END
>  <PUBCHEM_COMPOUND_CID>  (1) 
7263

>  <PUBCHEM_CONFORMER_RMSD>  (1) 
0.4

>  <PUBCHEM_CONFORMER_DIVERSEORDER>  (1) 
1

>  <PUBCHEM_MMFF94_PARTIAL_CHARGES>  (1) 
16
1 -0.18
10 0.15
11 0.15
12 0.15
13 0.4
14 0.4
15 0.4
16 0.4
2 -0.9
3 -0.9
4 0.1
5 0.1
6 -0.15
7 -0.15
8 0.18
9 -0.15

>  <PUBCHEM_EFFECTIVE_ROTOR_COUNT>  (1) 
0

>  <PUBCHEM_PHARMACOPHORE_FEATURES>  (1) 
5
1 2 cation
1 2 donor
1 3 cation
1 3 donor
6 4 5 6 7 8 9 rings

>  <PUBCHEM_HEAVY_ATOM_COUNT>  (1) 
9

>  <PUBCHEM_ATOM_DEF_STEREO_COUNT>  (1) 
0

>  <PUBCHEM_ATOM_UDEF_STEREO_COUNT>  (1) 
0

>  <PUBCHEM_BOND_DEF_STEREO_COUNT>  (1) 
0

>  <PUBCHEM_BOND_UDEF_STEREO_COUNT>  (1) 
0

>  <PUBCHEM_ISOTOPIC_ATOM_COUNT>  (1) 
0

>  <PUBCHEM_COMPONENT_COUNT>  (1) 
1

>  <PUBCHEM_CACTVS_TAUTO_COUNT>  (1) 
1

>  <PUBCHEM_CONFORMER_ID>  (1) 
00001C5F00000001

>  <PUBCHEM_MMFF94_ENERGY>  (1) 
41.1853

>  <PUBCHEM_FEATURE_SELFOVERLAP>  (1) 
25.377

>  <PUBCHEM_SHAPE_FINGERPRINT>  (1) 
14128692 85 18337116786216205180
15310529 11 16588303830823243076
16714656 1 18337955588902316708
16945 1 18410575041845443652
18185500 45 18407757036503565850
193761 8 18122625225726448421
20871998 184 18201440306707341806
21040471 1 18338798901198613601
23235685 24 18340482257822138180
23402655 69 17978772534111737621
23552423 10 18188209935045854012
2748010 2 18267018538804666524
29004967 10 18188501167908894360
5084963 1 18200598136592686170

>  <PUBCHEM_SHAPE_MULTIPOLES>  (1) 
177.12
3.43
1.71
0.6
1.57
0.15
0
0.3
0
-0.62
0
0.06
-0.01
0

>  <PUBCHEM_SHAPE_SELFOVERLAP>  (1) 
359.622

>  <PUBCHEM_SHAPE_VOLUME>  (1) 
104.2

>  <PUBCHEM_COORDINATE_TYPE>  (1) 
2
5
10

$$$$
