7269
     RDKit          3D

 10 10  0  0  0  0  0  0  0  0999 V2000
   -1.2080   -0.6974    0.0010 C   0  0  0  0  0  0  0  0  0  0  0  0
   -1.2081    0.6974    0.0009 C   0  0  0  0  0  0  0  0  0  0  0  0
    1.2080   -0.6974   -0.0012 C   0  0  0  0  0  0  0  0  0  0  0  0
    1.2080    0.6974   -0.0011 C   0  0  0  0  0  0  0  0  0  0  0  0
    0.0001   -1.3949    0.0000 C   0  0  0  0  0  0  0  0  0  0  0  0
   -0.0001    1.3948   -0.0001 C   0  0  0  0  0  0  0  0  0  0  0  0
   -2.4888   -1.4656   -0.0009 C   0  0  0  0  0  0  0  0  0  0  0  0
   -2.4889    1.4655    0.0002 C   0  0  0  0  0  0  0  0  0  0  0  0
    2.4890   -1.4654    0.0012 C   0  0  0  0  0  0  0  0  0  0  0  0
    2.4888    1.4656    0.0001 C   0  0  0  0  0  0  0  0  0  0  0  0
  1  2  2  0
  1  5  1  0
  1  7  1  0
  2  6  1  0
  2  8  1  0
  3  4  1  0
  3  5  2  0
  3  9  1  0
  4  6  2  0
  4 10  1  0
M  END
>  <PUBCHEM_COMPOUND_CID>  (1) 
7269

>  <PUBCHEM_CONFORMER_RMSD>  (1) 
0.4

>  <PUBCHEM_CONFORMER_DIVERSEORDER>  (1) 
1

>  <PUBCHEM_MMFF94_PARTIAL_CHARGES>  (1) 
12
1 -0.14
10 0.14
11 0.15
12 0.15
2 -0.14
3 -0.14
4 -0.14
5 -0.15
6 -0.15
7 0.14
8 0.14
9 0.14

>  <PUBCHEM_EFFECTIVE_ROTOR_COUNT>  (1) 
0

>  <PUBCHEM_PHARMACOPHORE_FEATURES>  (1) 
1
6 1 2 3 4 5 6 rings

>  <PUBCHEM_HEAVY_ATOM_COUNT>  (1) 
10

>  <PUBCHEM_ATOM_DEF_STEREO_COUNT>  (1) 
0

>  <PUBCHEM_ATOM_UDEF_STEREO_COUNT>  (1) 
0

>  <PUBCHEM_BOND_DEF_STEREO_COUNT>  (1) 
0

>  <PUBCHEM_BOND_UDEF_STEREO_COUNT>  (1) 
0

>  <PUBCHEM_ISOTOPIC_ATOM_COUNT>  (1) 
0

>  <PUBCHEM_COMPONENT_COUNT>  (1) 
1

>  <PUBCHEM_CACTVS_TAUTO_COUNT>  (1) 
1

>  <PUBCHEM_CONFORMER_ID>  (1) 
00001C6500000001

>  <PUBCHEM_MMFF94_ENERGY>  (1) 
26.3773

>  <PUBCHEM_FEATURE_SELFOVERLAP>  (1) 
5.074

>  <PUBCHEM_SHAPE_FINGERPRINT>  (1) 
11206711 2 18265897037023547605
12423570 1 16043060154936642295
12897270 3 18266740379437050965
13380535 21 18338812164036602596
14325111 11 18410575097553528384
16945 1 18194683652977228934
193761 8 18410575088958046215
19973954 147 18410575088958085184
21040471 1 18410856563977214724
21501502 16 18410856563940031621
2334 1 18410575119022817286
23402655 69 18341033200054341839
23552423 10 18333452045014653486
241688 4 18335701611292299296
2748010 2 18410573985151451303
29004967 10 18118406373972639731
5084963 1 18273214200811897850
68250623 7 18410578383198183110

>  <PUBCHEM_SHAPE_MULTIPOLES>  (1) 
205.8
3.68
2.06
0.62
0
0
0
0
0
0
0
0
0
0

>  <PUBCHEM_SHAPE_SELFOVERLAP>  (1) 
422.481

>  <PUBCHEM_SHAPE_VOLUME>  (1) 
115.7

>  <PUBCHEM_COORDINATE_TYPE>  (1) 
2
5
10

$$$$
