7281
     RDKit          3D

  6  5  0  0  1  0  0  0  0  0999 V2000
    0.0651    1.8005   -0.2403 Br  0  0  0  0  0  0  0  0  0  0  0  0
   -2.8106   -0.0770    0.3392 Br  0  0  0  0  0  0  0  0  0  0  0  0
    2.4704   -0.0943    0.3520 O   0  0  0  0  0  0  0  0  0  0  0  0
    0.0610   -0.1159    0.2300 C   0  0  0  0  0  0  0  0  0  0  0  0
    1.3629   -0.7293   -0.2774 C   0  0  0  0  0  0  0  0  0  0  0  0
   -1.1488   -0.7840   -0.4035 C   0  0  0  0  0  0  0  0  0  0  0  0
  1  4  1  0
  2  6  1  0
  3  5  1  0
  4  5  1  0
  4  6  1  0
M  END
>  <PUBCHEM_COMPOUND_CID>  (1) 
7281

>  <PUBCHEM_CONFORMER_RMSD>  (1) 
0.4

>  <PUBCHEM_CONFORMER_DIVERSEORDER>  (1) 
1
16
3
4
18
6
5
9
17
2
14
10
8
11
15
12
7
13

>  <PUBCHEM_MMFF94_PARTIAL_CHARGES>  (1) 
7
1 -0.23
12 0.4
2 -0.23
3 -0.68
4 0.23
5 0.28
6 0.23

>  <PUBCHEM_EFFECTIVE_ROTOR_COUNT>  (1) 
2

>  <PUBCHEM_PHARMACOPHORE_FEATURES>  (1) 
4
1 1 hydrophobe
1 2 hydrophobe
1 3 acceptor
1 3 donor

>  <PUBCHEM_HEAVY_ATOM_COUNT>  (1) 
6

>  <PUBCHEM_ATOM_DEF_STEREO_COUNT>  (1) 
0

>  <PUBCHEM_ATOM_UDEF_STEREO_COUNT>  (1) 
1

>  <PUBCHEM_BOND_DEF_STEREO_COUNT>  (1) 
0

>  <PUBCHEM_BOND_UDEF_STEREO_COUNT>  (1) 
0

>  <PUBCHEM_ISOTOPIC_ATOM_COUNT>  (1) 
0

>  <PUBCHEM_COMPONENT_COUNT>  (1) 
1

>  <PUBCHEM_CACTVS_TAUTO_COUNT>  (1) 
1

>  <PUBCHEM_CONFORMER_ID>  (1) 
00001C7100000001

>  <PUBCHEM_MMFF94_ENERGY>  (1) 
6.4708

>  <PUBCHEM_FEATURE_SELFOVERLAP>  (1) 
20.297

>  <PUBCHEM_SHAPE_FINGERPRINT>  (1) 
139733 1 9583517620299220047
16714656 1 18341050722592487559
20096714 4 18195533824958776837
20711978 78 16342295736296942590
23552449 1 18264765450638215324
29004967 10 18334581239098089275
5460574 1 11097854094799221555

>  <PUBCHEM_SHAPE_MULTIPOLES>  (1) 
129.49
3.41
1.49
0.74
1.07
0.96
0.01
-0.72
-0.57
-0.22
0.18
0.08
0.01
-0.05

>  <PUBCHEM_SHAPE_SELFOVERLAP>  (1) 
202.075

>  <PUBCHEM_SHAPE_VOLUME>  (1) 
95.4

>  <PUBCHEM_COORDINATE_TYPE>  (1) 
2
5
10

$$$$
