7283
     RDKit          3D

  6  5  0  0  1  0  0  0  0  0999 V2000
    2.1458    0.9029   -0.1299 N   0  0  0  0  0  0  0  0  0  0  0  0
    0.0167   -0.3821   -0.2928 C   0  0  0  0  0  0  0  0  0  0  0  0
   -0.7979    0.7748    0.3235 C   0  0  0  0  0  0  0  0  0  0  0  0
    1.4824   -0.3580    0.1861 C   0  0  0  0  0  0  0  0  0  0  0  0
   -0.5954   -1.7469    0.0424 C   0  0  0  0  0  0  0  0  0  0  0  0
   -2.2515    0.8093   -0.1293 C   0  0  0  0  0  0  0  0  0  0  0  0
  1  4  1  0
  2  3  1  0
  2  4  1  0
  2  5  1  0
  3  6  1  0
M  END
>  <PUBCHEM_COMPOUND_CID>  (1) 
7283

>  <PUBCHEM_CONFORMER_RMSD>  (1) 
0.4

>  <PUBCHEM_CONFORMER_DIVERSEORDER>  (1) 
1
17
8
5
9
4
15
14
11
6
16
13
2
7
10
12
3

>  <PUBCHEM_MMFF94_PARTIAL_CHARGES>  (1) 
4
1 -0.99
18 0.36
19 0.36
4 0.27

>  <PUBCHEM_EFFECTIVE_ROTOR_COUNT>  (1) 
2

>  <PUBCHEM_PHARMACOPHORE_FEATURES>  (1) 
4
1 1 cation
1 1 donor
1 5 hydrophobe
1 6 hydrophobe

>  <PUBCHEM_HEAVY_ATOM_COUNT>  (1) 
6

>  <PUBCHEM_ATOM_DEF_STEREO_COUNT>  (1) 
0

>  <PUBCHEM_ATOM_UDEF_STEREO_COUNT>  (1) 
1

>  <PUBCHEM_BOND_DEF_STEREO_COUNT>  (1) 
0

>  <PUBCHEM_BOND_UDEF_STEREO_COUNT>  (1) 
0

>  <PUBCHEM_ISOTOPIC_ATOM_COUNT>  (1) 
0

>  <PUBCHEM_COMPONENT_COUNT>  (1) 
1

>  <PUBCHEM_CACTVS_TAUTO_COUNT>  (1) 
1

>  <PUBCHEM_CONFORMER_ID>  (1) 
00001C7300000001

>  <PUBCHEM_MMFF94_ENERGY>  (1) 
-0.2199

>  <PUBCHEM_FEATURE_SELFOVERLAP>  (1) 
20.298

>  <PUBCHEM_SHAPE_FINGERPRINT>  (1) 
16714656 1 18340210803109468255
20096714 4 18410575050477504824
21040471 1 18411698772746205632
23552449 1 18197216073148397168
23552449 11 17536868876057616427
5943 1 12714488988901722851

>  <PUBCHEM_SHAPE_MULTIPOLES>  (1) 
118.5
2.64
1.5
0.65
0.05
0.66
0.01
-1.19
-0.09
0.12
0.02
0.03
0
-0.05

>  <PUBCHEM_SHAPE_SELFOVERLAP>  (1) 
202.114

>  <PUBCHEM_SHAPE_VOLUME>  (1) 
79.6

>  <PUBCHEM_COORDINATE_TYPE>  (1) 
2
5
10

$$$$
