7288
     RDKit          3D

  6  5  0  0  0  0  0  0  0  0999 V2000
    0.0002    1.2754   -0.0002 O   0  0  0  0  0  0  0  0  0  0  0  0
    1.2853   -0.7656   -0.0120 C   0  0  0  0  0  0  0  0  0  0  0  0
   -1.2854   -0.7656    0.0118 C   0  0  0  0  0  0  0  0  0  0  0  0
    0.0001    0.0454   -0.0002 C   0  0  0  0  0  0  0  0  0  0  0  0
    2.5284    0.1052    0.0064 C   0  0  0  0  0  0  0  0  0  0  0  0
   -2.5285    0.1053   -0.0058 C   0  0  0  0  0  0  0  0  0  0  0  0
  1  4  2  0
  2  4  1  0
  2  5  1  0
  3  4  1  0
  3  6  1  0
M  END
>  <PUBCHEM_COMPOUND_CID>  (1) 
7288

>  <PUBCHEM_CONFORMER_RMSD>  (1) 
0.4

>  <PUBCHEM_CONFORMER_DIVERSEORDER>  (1) 
1
10
4
11
5
2
8
3
9
6
7

>  <PUBCHEM_MMFF94_PARTIAL_CHARGES>  (1) 
4
1 -0.57
2 0.06
3 0.06
4 0.45

>  <PUBCHEM_EFFECTIVE_ROTOR_COUNT>  (1) 
2

>  <PUBCHEM_PHARMACOPHORE_FEATURES>  (1) 
3
1 1 acceptor
1 5 hydrophobe
1 6 hydrophobe

>  <PUBCHEM_HEAVY_ATOM_COUNT>  (1) 
6

>  <PUBCHEM_ATOM_DEF_STEREO_COUNT>  (1) 
0

>  <PUBCHEM_ATOM_UDEF_STEREO_COUNT>  (1) 
0

>  <PUBCHEM_BOND_DEF_STEREO_COUNT>  (1) 
0

>  <PUBCHEM_BOND_UDEF_STEREO_COUNT>  (1) 
0

>  <PUBCHEM_ISOTOPIC_ATOM_COUNT>  (1) 
0

>  <PUBCHEM_COMPONENT_COUNT>  (1) 
1

>  <PUBCHEM_CACTVS_TAUTO_COUNT>  (1) 
2

>  <PUBCHEM_CONFORMER_ID>  (1) 
00001C7800000001

>  <PUBCHEM_MMFF94_ENERGY>  (1) 
-0.721

>  <PUBCHEM_FEATURE_SELFOVERLAP>  (1) 
15.223

>  <PUBCHEM_SHAPE_FINGERPRINT>  (1) 
139733 1 9295288339353632195
14390081 3 18201997750422843336
16714656 1 18413390921062303158
20096714 4 18338800138412789539
21040471 1 18410575097558744679
23552423 10 18116720612273268526
29004967 10 18335426776335054170
5460574 1 9223232948697282595

>  <PUBCHEM_SHAPE_MULTIPOLES>  (1) 
117.61
3.42
1.01
0.6
0
0.12
0
-0.05
0
0
0
0
-0.02
0

>  <PUBCHEM_SHAPE_SELFOVERLAP>  (1) 
206.07

>  <PUBCHEM_SHAPE_VOLUME>  (1) 
78.4

>  <PUBCHEM_COORDINATE_TYPE>  (1) 
2
5
10

$$$$
