7312
     RDKit          3D

 10  9  0  0  0  0  0  0  0  0999 V2000
   -3.7370    0.1480    0.2799 Cl  0  0  0  0  0  0  0  0  0  0  0  0
    0.2219    0.0825   -0.5753 N   0  0  0  0  0  0  0  0  0  0  0  0
    0.5059   -1.3162   -0.2567 C   0  0  0  0  0  0  0  0  0  0  0  0
    1.3174    0.9415   -0.1270 C   0  0  0  0  0  0  0  0  0  0  0  0
   -1.0386    0.5005    0.0370 C   0  0  0  0  0  0  0  0  0  0  0  0
    0.6144   -1.5032    1.2540 C   0  0  0  0  0  0  0  0  0  0  0  0
    1.7921   -1.7453   -0.9557 C   0  0  0  0  0  0  0  0  0  0  0  0
    1.4648    0.8629    1.3898 C   0  0  0  0  0  0  0  0  0  0  0  0
    1.0561    2.3749   -0.5787 C   0  0  0  0  0  0  0  0  0  0  0  0
   -2.1971   -0.3455   -0.4674 C   0  0  0  0  0  0  0  0  0  0  0  0
  1 10  1  0
  2  3  1  0
  2  4  1  0
  2  5  1  0
  3  6  1  0
  3  7  1  0
  4  8  1  0
  4  9  1  0
  5 10  1  0
M  END
>  <PUBCHEM_COMPOUND_CID>  (1) 
7312

>  <PUBCHEM_CONFORMER_RMSD>  (1) 
0.6

>  <PUBCHEM_CONFORMER_DIVERSEORDER>  (1) 
1
3
2

>  <PUBCHEM_MMFF94_PARTIAL_CHARGES>  (1) 
6
1 -0.29
10 0.29
2 -0.81
3 0.27
4 0.27
5 0.27

>  <PUBCHEM_EFFECTIVE_ROTOR_COUNT>  (1) 
4

>  <PUBCHEM_PHARMACOPHORE_FEATURES>  (1) 
3
1 2 cation
3 3 6 7 hydrophobe
3 4 8 9 hydrophobe

>  <PUBCHEM_HEAVY_ATOM_COUNT>  (1) 
10

>  <PUBCHEM_ATOM_DEF_STEREO_COUNT>  (1) 
0

>  <PUBCHEM_ATOM_UDEF_STEREO_COUNT>  (1) 
0

>  <PUBCHEM_BOND_DEF_STEREO_COUNT>  (1) 
0

>  <PUBCHEM_BOND_UDEF_STEREO_COUNT>  (1) 
0

>  <PUBCHEM_ISOTOPIC_ATOM_COUNT>  (1) 
0

>  <PUBCHEM_COMPONENT_COUNT>  (1) 
1

>  <PUBCHEM_CACTVS_TAUTO_COUNT>  (1) 
1

>  <PUBCHEM_CONFORMER_ID>  (1) 
00001C9000000001

>  <PUBCHEM_MMFF94_ENERGY>  (1) 
43.5333

>  <PUBCHEM_FEATURE_SELFOVERLAP>  (1) 
15.225

>  <PUBCHEM_SHAPE_FINGERPRINT>  (1) 
12423570 1 11737026806952621578
12932764 1 17967814908470822967
161256 15 18339921489717358700
16945 1 18341628022052743908
19837323 101 17546739608283145732
20645477 70 18410853266392021023
20653091 64 18339085878202426073
20708731 107 18341624715007131807
20711978 78 18058713724534095613
20711985 344 17546441181086043119
21040471 1 17982163732053892532
21524375 3 17975970187370989045
230 275 18411131459475400209
23235685 24 18337951323778499085
23552449 11 18263070059669074299
241688 4 18122351176843060360
2748010 2 18121764054808500461
5084963 1 18121196925751543120

>  <PUBCHEM_SHAPE_MULTIPOLES>  (1) 
202.68
3.66
2.11
1.16
5.37
0.42
-0.33
0.05
-0.09
-1.6
0.31
-0.52
-0.16
0.16

>  <PUBCHEM_SHAPE_SELFOVERLAP>  (1) 
366.43

>  <PUBCHEM_SHAPE_VOLUME>  (1) 
132.6

>  <PUBCHEM_COORDINATE_TYPE>  (1) 
2
5
10

$$$$
