7329
     RDKit          3D

 17 18  0  0  0  0  0  0  0  0999 V2000
    2.7807   -2.3411    2.0984 Cl  0  0  0  0  0  0  0  0  0  0  0  0
   -2.7809    2.3413    2.0983 Cl  0  0  0  0  0  0  0  0  0  0  0  0
   -0.0001   -0.0001   -1.9427 S   0  0  0  0  0  0  0  0  0  0  0  0
    2.1851    2.1244   -1.6706 O   0  0  0  0  0  0  0  0  0  0  0  0
   -2.1854   -2.1245   -1.6705 O   0  0  0  0  0  0  0  0  0  0  0  0
    1.3800    0.0261   -0.8067 C   0  0  0  0  0  0  0  0  0  0  0  0
   -1.3787   -0.0261   -0.8079 C   0  0  0  0  0  0  0  0  0  0  0  0
    2.2994    1.0753   -0.8073 C   0  0  0  0  0  0  0  0  0  0  0  0
   -2.2996   -1.0753   -0.8073 C   0  0  0  0  0  0  0  0  0  0  0  0
    1.5287   -1.0309    0.0915 C   0  0  0  0  0  0  0  0  0  0  0  0
   -1.5288    1.0308    0.0914 C   0  0  0  0  0  0  0  0  0  0  0  0
    3.3672    1.0676    0.0899 C   0  0  0  0  0  0  0  0  0  0  0  0
   -3.3673   -1.0675    0.0900 C   0  0  0  0  0  0  0  0  0  0  0  0
    2.5965   -1.0386    0.9889 C   0  0  0  0  0  0  0  0  0  0  0  0
   -2.5968    1.0386    0.9888 C   0  0  0  0  0  0  0  0  0  0  0  0
    3.5159    0.0107    0.9879 C   0  0  0  0  0  0  0  0  0  0  0  0
   -3.5160   -0.0106    0.9879 C   0  0  0  0  0  0  0  0  0  0  0  0
  1 14  1  0
  2 15  1  0
  3  6  1  0
  3  7  1  0
  4  8  1  0
  5  9  1  0
  6  8  2  0
  6 10  1  0
  7  9  2  0
  7 11  1  0
  8 12  1  0
  9 13  1  0
 10 14  2  0
 11 15  2  0
 12 16  2  0
 13 17  2  0
 14 16  1  0
 15 17  1  0
M  END
>  <PUBCHEM_COMPOUND_CID>  (1) 
7329

>  <PUBCHEM_CONFORMER_RMSD>  (1) 
0.6

>  <PUBCHEM_CONFORMER_DIVERSEORDER>  (1) 
1
10
3
11
4
12
8
2
7
9
5
6

>  <PUBCHEM_MMFF94_PARTIAL_CHARGES>  (1) 
25
1 -0.18
10 -0.15
11 -0.15
12 -0.15
13 -0.15
14 0.18
15 0.18
16 -0.15
17 -0.15
18 0.15
19 0.15
2 -0.18
20 0.15
21 0.15
22 0.15
23 0.15
24 0.45
25 0.45
3 -0.2
4 -0.53
5 -0.53
6 0.1
7 0.1
8 0.08
9 0.08

>  <PUBCHEM_EFFECTIVE_ROTOR_COUNT>  (1) 
2

>  <PUBCHEM_PHARMACOPHORE_FEATURES>  (1) 
4
1 4 donor
1 5 donor
6 6 8 10 12 14 16 rings
6 7 9 11 13 15 17 rings

>  <PUBCHEM_HEAVY_ATOM_COUNT>  (1) 
17

>  <PUBCHEM_ATOM_DEF_STEREO_COUNT>  (1) 
0

>  <PUBCHEM_ATOM_UDEF_STEREO_COUNT>  (1) 
0

>  <PUBCHEM_BOND_DEF_STEREO_COUNT>  (1) 
0

>  <PUBCHEM_BOND_UDEF_STEREO_COUNT>  (1) 
0

>  <PUBCHEM_ISOTOPIC_ATOM_COUNT>  (1) 
0

>  <PUBCHEM_COMPONENT_COUNT>  (1) 
1

>  <PUBCHEM_CACTVS_TAUTO_COUNT>  (1) 
5

>  <PUBCHEM_CONFORMER_ID>  (1) 
00001CA100000001

>  <PUBCHEM_MMFF94_ENERGY>  (1) 
40.2642

>  <PUBCHEM_FEATURE_SELFOVERLAP>  (1) 
20.297

>  <PUBCHEM_SHAPE_FINGERPRINT>  (1) 
10165383 225 15697175073905596549
11471102 22 17313098674727820364
11578080 2 17978754065261676245
11640471 11 18339092543802025120
11725454 13 15480673357405363024
12202030 40 15719398308415799377
12363563 72 15502374525787516042
12553582 1 17752193999305546050
12596599 1 18261951847384972466
13032168 30 17829887990304792834
13294875 104 16982111366573823727
13296908 3 15719387356249201246
13538477 17 18272650181532659845
13583140 156 17968961750559606129
13764800 53 17060064743807427643
13965767 371 18052556381946329465
14787075 74 16898209240248893485
14957384 54 18059853905186540256
15375462 189 18265895950665957071
16945 1 17775007916309047245
18981168 100 16845024402661832345
20510252 161 17489603242286264769
20600515 1 15476137008779156606
20603629 256 18187632575767422458
20645477 70 17168131382009415142
21427221 339 18266746774801656056
21486144 27 13901904548383380135
22445834 79 18333449837264235366
2255824 54 17967821586912755908
23419403 2 15117251977409967911
23493267 7 17632024065362843842
23557571 272 16486690372341131983
23559900 14 17560536014037416733
23598291 2 18335995163875295156
238918 7 16893419166356646669
3797600 57 18123768696412837130
392239 28 17835240425703590000
5262128 65 14346087390482046438
7097593 13 18265333910886718274
77492 1 18338516446948098444
81228 2 15551600894103181894
90316 7 18338802221557090801

>  <PUBCHEM_SHAPE_MULTIPOLES>  (1) 
345.7
6.8
2.23
2.08
0
0
-0.19
0
-3.08
0
-0.53
0
0
-2.84

>  <PUBCHEM_SHAPE_SELFOVERLAP>  (1) 
711.903

>  <PUBCHEM_SHAPE_VOLUME>  (1) 
200.7

>  <PUBCHEM_COORDINATE_TYPE>  (1) 
2
5
10

$$$$
