7359
     RDKit          3D

  7  6  0  0  0  0  0  0  0  0999 V2000
    0.0178   -2.1171    0.1521 O   0  0  0  0  0  0  0  0  0  0  0  0
   -0.0047    0.2985    0.2247 C   0  0  0  0  0  0  0  0  0  0  0  0
    1.2533    1.0859   -0.1715 C   0  0  0  0  0  0  0  0  0  0  0  0
   -1.2700    1.0630   -0.1926 C   0  0  0  0  0  0  0  0  0  0  0  0
    2.5407    0.3705    0.2191 C   0  0  0  0  0  0  0  0  0  0  0  0
   -2.5505    0.3525    0.2282 C   0  0  0  0  0  0  0  0  0  0  0  0
    0.0133   -1.0533   -0.4599 C   0  0  0  0  0  0  0  0  0  0  0  0
  1  7  2  0
  2  3  1  0
  2  4  1  0
  2  7  1  0
  3  5  1  0
  4  6  1  0
M  END
>  <PUBCHEM_COMPOUND_CID>  (1) 
7359

>  <PUBCHEM_CONFORMER_RMSD>  (1) 
0.4

>  <PUBCHEM_CONFORMER_DIVERSEORDER>  (1) 
1
12
20
22
9
10
23
15
13
14
11
19
2
17
7
21
18
8
16
5
6
3
4

>  <PUBCHEM_MMFF94_PARTIAL_CHARGES>  (1) 
4
1 -0.57
19 0.06
2 0.06
7 0.45

>  <PUBCHEM_EFFECTIVE_ROTOR_COUNT>  (1) 
3

>  <PUBCHEM_PHARMACOPHORE_FEATURES>  (1) 
3
1 1 acceptor
1 5 hydrophobe
1 6 hydrophobe

>  <PUBCHEM_HEAVY_ATOM_COUNT>  (1) 
7

>  <PUBCHEM_ATOM_DEF_STEREO_COUNT>  (1) 
0

>  <PUBCHEM_ATOM_UDEF_STEREO_COUNT>  (1) 
0

>  <PUBCHEM_BOND_DEF_STEREO_COUNT>  (1) 
0

>  <PUBCHEM_BOND_UDEF_STEREO_COUNT>  (1) 
0

>  <PUBCHEM_ISOTOPIC_ATOM_COUNT>  (1) 
0

>  <PUBCHEM_COMPONENT_COUNT>  (1) 
1

>  <PUBCHEM_CACTVS_TAUTO_COUNT>  (1) 
2

>  <PUBCHEM_CONFORMER_ID>  (1) 
00001CBF00000001

>  <PUBCHEM_MMFF94_ENERGY>  (1) 
2.6951

>  <PUBCHEM_FEATURE_SELFOVERLAP>  (1) 
15.223

>  <PUBCHEM_SHAPE_FINGERPRINT>  (1) 
14325111 11 18411699893664383928
16714656 1 18336828688046710476
20096714 4 18411698798537368252
21040471 1 18411702122889424204
23552449 11 17900535679781082299
29004967 10 18263372395196518129
5084963 1 18272932725840494273

>  <PUBCHEM_SHAPE_MULTIPOLES>  (1) 
138.19
3.01
1.63
0.67
0.03
0.99
-0.02
-1.03
0.34
-0.02
-0.04
0
0
0

>  <PUBCHEM_SHAPE_SELFOVERLAP>  (1) 
245.078

>  <PUBCHEM_SHAPE_VOLUME>  (1) 
90.7

>  <PUBCHEM_COORDINATE_TYPE>  (1) 
2
5
10

$$$$
