736
     RDKit          3D

 12 12  0  0  1  0  0  0  0  0999 V2000
    0.5112   -1.1302   -0.2578 O   0  0  0  0  0  0  0  0  0  0  0  0
    0.9746    2.4008    0.6159 O   0  0  0  0  0  0  0  0  0  0  0  0
   -1.5691    1.1898   -1.3782 O   0  0  0  0  0  0  0  0  0  0  0  0
   -2.8285   -0.1681    0.7086 O   0  0  0  0  0  0  0  0  0  0  0  0
    3.2231   -1.2642    0.1637 O   0  0  0  0  0  0  0  0  0  0  0  0
   -1.4505   -2.2654   -0.2505 O   0  0  0  0  0  0  0  0  0  0  0  0
    0.5173    1.3240   -0.2007 C   0  0  0  0  0  0  0  0  0  0  0  0
   -1.0067    1.2260   -0.0621 C   0  0  0  0  0  0  0  0  0  0  0  0
    1.2163    0.0286    0.2361 C   0  0  0  0  0  0  0  0  0  0  0  0
   -1.4177   -0.0359    0.6925 C   0  0  0  0  0  0  0  0  0  0  0  0
    2.6465   -0.0531   -0.2888 C   0  0  0  0  0  0  0  0  0  0  0  0
   -0.8165   -1.2522    0.0216 C   0  0  0  0  0  0  0  0  0  0  0  0
  1  9  1  0
  1 12  1  0
  2  7  1  0
  3  8  1  0
  4 10  1  0
  5 11  1  0
  6 12  2  0
  7  8  1  0
  7  9  1  0
  8 10  1  0
  9 11  1  0
 10 12  1  0
M  END
>  <PUBCHEM_COMPOUND_CID>  (1) 
736

>  <PUBCHEM_CONFORMER_RMSD>  (1) 
0.6

>  <PUBCHEM_CONFORMER_DIVERSEORDER>  (1) 
3
30
17
38
25
1
19
12
4
6
7
34
10
14
15
24
37
39
35
29
32
28
31
9
2
21
16
36
18
33
5
26
22
11
23
20
8
27
13

>  <PUBCHEM_MMFF94_PARTIAL_CHARGES>  (1) 
16
1 -0.43
10 0.34
11 0.28
12 0.66
19 0.4
2 -0.68
20 0.4
21 0.4
22 0.4
3 -0.68
4 -0.68
5 -0.68
6 -0.57
7 0.28
8 0.28
9 0.28

>  <PUBCHEM_EFFECTIVE_ROTOR_COUNT>  (1) 
2

>  <PUBCHEM_PHARMACOPHORE_FEATURES>  (1) 
10
1 2 acceptor
1 2 donor
1 3 acceptor
1 3 donor
1 4 acceptor
1 4 donor
1 5 acceptor
1 5 donor
1 6 acceptor
6 1 7 8 9 10 12 rings

>  <PUBCHEM_HEAVY_ATOM_COUNT>  (1) 
12

>  <PUBCHEM_ATOM_DEF_STEREO_COUNT>  (1) 
0

>  <PUBCHEM_ATOM_UDEF_STEREO_COUNT>  (1) 
4

>  <PUBCHEM_BOND_DEF_STEREO_COUNT>  (1) 
0

>  <PUBCHEM_BOND_UDEF_STEREO_COUNT>  (1) 
0

>  <PUBCHEM_ISOTOPIC_ATOM_COUNT>  (1) 
0

>  <PUBCHEM_COMPONENT_COUNT>  (1) 
1

>  <PUBCHEM_CACTVS_TAUTO_COUNT>  (1) 
1

>  <PUBCHEM_CONFORMER_ID>  (1) 
000002E000000003

>  <PUBCHEM_MMFF94_ENERGY>  (1) 
24.7554

>  <PUBCHEM_FEATURE_SELFOVERLAP>  (1) 
50.764

>  <PUBCHEM_SHAPE_FINGERPRINT>  (1) 
12423570 1 8785185222863463309
13024252 1 15864364509964929330
15310529 11 17385732382751772628
161256 15 18191865840951376268
16945 1 18413113878544492001
18185500 45 17188695780012007959
193761 8 18124315166497641745
21501502 16 18196655317928545344
23552423 10 17976264856423507126
2748010 2 18051139090024792399
369184 2 18342173337023480490
5084963 1 17967821530529742993

>  <PUBCHEM_SHAPE_MULTIPOLES>  (1) 
211.74
3.45
2.09
0.83
1.63
0.13
-0.12
-1.07
0.24
-0.09
-0.04
-0.3
0.21
0.19

>  <PUBCHEM_SHAPE_SELFOVERLAP>  (1) 
427.896

>  <PUBCHEM_SHAPE_VOLUME>  (1) 
122.3

>  <PUBCHEM_COORDINATE_TYPE>  (1) 
2
5
10

$$$$
