7380
     RDKit          3D

 12 12  0  0  0  0  0  0  0  0999 V2000
    2.6359    2.1102    0.0003 Cl  0  0  0  0  0  0  0  0  0  0  0  0
    3.4151   -0.7925    0.0004 O   0  0  0  0  0  0  0  0  0  0  0  0
   -2.1551    0.1174    0.0001 C   0  0  0  0  0  0  0  0  0  0  0  0
   -0.6362   -0.1222   -0.0003 C   0  0  0  0  0  0  0  0  0  0  0  0
   -2.7811   -0.5196    1.2597 C   0  0  0  0  0  0  0  0  0  0  0  0
   -2.7823   -0.5223   -1.2575 C   0  0  0  0  0  0  0  0  0  0  0  0
   -2.5525    1.6109   -0.0015 C   0  0  0  0  0  0  0  0  0  0  0  0
    0.1956    0.9693   -0.0004 C   0  0  0  0  0  0  0  0  0  0  0  0
   -0.1819   -1.4170    0.0000 C   0  0  0  0  0  0  0  0  0  0  0  0
    1.5732    0.7514   -0.0005 C   0  0  0  0  0  0  0  0  0  0  0  0
    1.1958   -1.6349   -0.0002 C   0  0  0  0  0  0  0  0  0  0  0  0
    2.0735   -0.5506   -0.0003 C   0  0  0  0  0  0  0  0  0  0  0  0
  1 10  1  0
  2 12  1  0
  3  4  1  0
  3  5  1  0
  3  6  1  0
  3  7  1  0
  4  8  2  0
  4  9  1  0
  8 10  1  0
  9 11  2  0
 10 12  2  0
 11 12  1  0
M  END
>  <PUBCHEM_COMPOUND_CID>  (1) 
7380

>  <PUBCHEM_CONFORMER_RMSD>  (1) 
0.4

>  <PUBCHEM_CONFORMER_DIVERSEORDER>  (1) 
1
2

>  <PUBCHEM_MMFF94_PARTIAL_CHARGES>  (1) 
13
1 -0.18
10 0.18
11 -0.15
12 0.08
2 -0.53
22 0.15
23 0.15
24 0.15
25 0.45
3 0.14
4 -0.14
8 -0.15
9 -0.15

>  <PUBCHEM_EFFECTIVE_ROTOR_COUNT>  (1) 
1

>  <PUBCHEM_PHARMACOPHORE_FEATURES>  (1) 
3
1 2 donor
4 3 5 6 7 hydrophobe
6 4 8 9 10 11 12 rings

>  <PUBCHEM_HEAVY_ATOM_COUNT>  (1) 
12

>  <PUBCHEM_ATOM_DEF_STEREO_COUNT>  (1) 
0

>  <PUBCHEM_ATOM_UDEF_STEREO_COUNT>  (1) 
0

>  <PUBCHEM_BOND_DEF_STEREO_COUNT>  (1) 
0

>  <PUBCHEM_BOND_UDEF_STEREO_COUNT>  (1) 
0

>  <PUBCHEM_ISOTOPIC_ATOM_COUNT>  (1) 
0

>  <PUBCHEM_COMPONENT_COUNT>  (1) 
1

>  <PUBCHEM_CACTVS_TAUTO_COUNT>  (1) 
3

>  <PUBCHEM_CONFORMER_ID>  (1) 
00001CD400000001

>  <PUBCHEM_MMFF94_ENERGY>  (1) 
38.7608

>  <PUBCHEM_FEATURE_SELFOVERLAP>  (1) 
15.223

>  <PUBCHEM_SHAPE_FINGERPRINT>  (1) 
10608611 8 18334575720218399901
10857977 72 17313392270081180219
12032990 46 18266469719700181614
124424 183 17750223738576075674
12932764 1 17917996113229546873
13380535 21 18121513594149122154
13380535 76 18267014154091255240
14325111 11 18410574010937313028
14648413 74 18336266726041353313
14897335 6 18196644310370509844
15219456 202 18187367661820562329
15775835 57 18130513032218838633
16945 1 18410855447364865030
17844478 74 18114758104418820873
18186145 218 18130515209846411420
193761 8 14159177500704058150
19973954 147 18408326570705421761
20201158 50 18262516992213926467
20715346 28 17895192254880313541
21040471 1 18266459982818956288
23402655 69 18123736579338994677
23552423 10 18411695465684697807
2748010 2 18335704987247337620
3248919 1 17968092044813250253
369184 2 18343021107817499577
5084963 1 18059848480621291259
528886 8 18337948974526054483
63268167 104 18343300396307859473
8030462 33 18408887338815268581

>  <PUBCHEM_SHAPE_MULTIPOLES>  (1) 
242.95
4.95
1.87
0.88
0.24
0.46
0
0.74
0
0.93
0
-0.75
-0.11
0

>  <PUBCHEM_SHAPE_SELFOVERLAP>  (1) 
493.842

>  <PUBCHEM_SHAPE_VOLUME>  (1) 
145.2

>  <PUBCHEM_COORDINATE_TYPE>  (1) 
2
5
10

$$$$
