7383
     RDKit          3D

 12 12  0  0  0  0  0  0  0  0999 V2000
    2.8970    0.1730    1.7763 Cl  0  0  0  0  0  0  0  0  0  0  0  0
   -2.6025    2.1849    0.0190 Cl  0  0  0  0  0  0  0  0  0  0  0  0
   -3.8269   -0.8090    0.1117 Cl  0  0  0  0  0  0  0  0  0  0  0  0
    2.3632    0.0944   -0.1984 S   0  0  0  0  0  0  0  0  0  0  0  0
    2.6384    1.4109   -0.7430 O   0  0  0  0  0  0  0  0  0  0  0  0
    3.0032   -1.1018   -0.7140 O   0  0  0  0  0  0  0  0  0  0  0  0
    0.6352   -0.1387   -0.1109 C   0  0  0  0  0  0  0  0  0  0  0  0
   -0.2172    0.9650   -0.0809 C   0  0  0  0  0  0  0  0  0  0  0  0
    0.1071   -1.4291   -0.0720 C   0  0  0  0  0  0  0  0  0  0  0  0
   -1.5978    0.7783   -0.0119 C   0  0  0  0  0  0  0  0  0  0  0  0
   -1.2736   -1.6158   -0.0030 C   0  0  0  0  0  0  0  0  0  0  0  0
   -2.1260   -0.5121    0.0270 C   0  0  0  0  0  0  0  0  0  0  0  0
  1  4  1  0
  2 10  1  0
  3 12  1  0
  4  5  2  0
  4  6  2  0
  4  7  1  0
  7  8  2  0
  7  9  1  0
  8 10  1  0
  9 11  2  0
 10 12  2  0
 11 12  1  0
M  END
>  <PUBCHEM_COMPOUND_CID>  (1) 
7383

>  <PUBCHEM_CONFORMER_RMSD>  (1) 
0.4

>  <PUBCHEM_CONFORMER_DIVERSEORDER>  (1) 
2
1

>  <PUBCHEM_MMFF94_PARTIAL_CHARGES>  (1) 
15
1 -0.19
10 0.18
11 -0.15
12 0.18
13 0.15
14 0.15
15 0.15
2 -0.18
3 -0.18
4 1.49
5 -0.65
6 -0.65
7 -0.01
8 -0.15
9 -0.15

>  <PUBCHEM_EFFECTIVE_ROTOR_COUNT>  (1) 
1

>  <PUBCHEM_PHARMACOPHORE_FEATURES>  (1) 
1
6 7 8 9 10 11 12 rings

>  <PUBCHEM_HEAVY_ATOM_COUNT>  (1) 
12

>  <PUBCHEM_ATOM_DEF_STEREO_COUNT>  (1) 
0

>  <PUBCHEM_ATOM_UDEF_STEREO_COUNT>  (1) 
0

>  <PUBCHEM_BOND_DEF_STEREO_COUNT>  (1) 
0

>  <PUBCHEM_BOND_UDEF_STEREO_COUNT>  (1) 
0

>  <PUBCHEM_ISOTOPIC_ATOM_COUNT>  (1) 
0

>  <PUBCHEM_COMPONENT_COUNT>  (1) 
1

>  <PUBCHEM_CACTVS_TAUTO_COUNT>  (1) 
1

>  <PUBCHEM_CONFORMER_ID>  (1) 
00001CD700000002

>  <PUBCHEM_MMFF94_ENERGY>  (1) 
16.8922

>  <PUBCHEM_FEATURE_SELFOVERLAP>  (1) 
5.074

>  <PUBCHEM_SHAPE_FINGERPRINT>  (1) 
10857977 72 18340482356674802043
11132069 177 18343016709897673571
12032990 46 18337681918187521235
12716758 59 18343018852616797395
12932764 1 17418092135069795020
13380535 21 18124327012502708255
13380535 76 18265893545589415605
13538477 17 18041274495181305274
14144814 61 18333450941118316168
14325111 11 18410579461261309333
15219456 202 17917422112546552802
15775835 57 17968667016522584012
16945 1 18340483464929423047
18186145 218 16988846081104157202
193761 8 18050008783951138823
20510252 161 18343022194286295097
20559304 39 18260824917096727074
20645464 45 17917698124187790986
20653085 51 18336560316993984521
20715346 28 18131625669171504808
21028194 46 18202003196377947498
21040471 1 18339079285232369685
21501502 16 18266745675401012127
23402539 116 18341037601799889879
23402655 69 18267849611805212397
23463225 33 18334012757174062522
23552423 10 18334298660483770414
23559900 14 18129384796688615774
2748010 2 18267871575434344975
3248919 1 18409160017646118420
369184 2 17060617810740602234
5084963 1 18272095971874725874
53812653 166 18198341753937957361
6333449 129 18341612564750451005
7364860 26 18341898545453907764
8030462 33 16950285096201156372

>  <PUBCHEM_SHAPE_MULTIPOLES>  (1) 
244.67
5.63
1.86
0.97
0.04
0.47
0.38
0.19
0.59
-1.11
-0.15
1
0.07
0.1

>  <PUBCHEM_SHAPE_SELFOVERLAP>  (1) 
469.309

>  <PUBCHEM_SHAPE_VOLUME>  (1) 
153.1

>  <PUBCHEM_COORDINATE_TYPE>  (1) 
2
5
10

$$$$
