7399
     RDKit          3D

 11 11  0  0  0  0  0  0  0  0999 V2000
    4.4265    0.0033    0.1241 I   0  0  0  0  0  0  0  0  0  0  0  0
   -2.7153    0.0072    1.7802 Cl  0  0  0  0  0  0  0  0  0  0  0  0
   -2.1786   -0.0025   -0.1952 S   0  0  0  0  0  0  0  0  0  0  0  0
   -2.6276   -1.2751   -0.7285 O   0  0  0  0  0  0  0  0  0  0  0  0
   -2.6548    1.2639   -0.7208 O   0  0  0  0  0  0  0  0  0  0  0  0
   -0.4350   -0.0006   -0.1104 C   0  0  0  0  0  0  0  0  0  0  0  0
    0.2624   -1.2080   -0.0703 C   0  0  0  0  0  0  0  0  0  0  0  0
    0.2610    1.2079   -0.0834 C   0  0  0  0  0  0  0  0  0  0  0  0
    1.6557   -1.2068   -0.0032 C   0  0  0  0  0  0  0  0  0  0  0  0
    1.6542    1.2091   -0.0163 C   0  0  0  0  0  0  0  0  0  0  0  0
    2.3515    0.0018    0.0238 C   0  0  0  0  0  0  0  0  0  0  0  0
  1 11  1  0
  2  3  1  0
  3  4  2  0
  3  5  2  0
  3  6  1  0
  6  7  2  0
  6  8  1  0
  7  9  1  0
  8 10  2  0
  9 11  2  0
 10 11  1  0
M  END
>  <PUBCHEM_COMPOUND_CID>  (1) 
7399

>  <PUBCHEM_CONFORMER_RMSD>  (1) 
0.4

>  <PUBCHEM_CONFORMER_DIVERSEORDER>  (1) 
1

>  <PUBCHEM_MMFF94_PARTIAL_CHARGES>  (1) 
15
1 -0.08
10 -0.15
11 0.08
12 0.15
13 0.15
14 0.15
15 0.15
2 -0.19
3 1.49
4 -0.65
5 -0.65
6 -0.01
7 -0.15
8 -0.15
9 -0.15

>  <PUBCHEM_EFFECTIVE_ROTOR_COUNT>  (1) 
1

>  <PUBCHEM_PHARMACOPHORE_FEATURES>  (1) 
2
1 1 hydrophobe
6 6 7 8 9 10 11 rings

>  <PUBCHEM_HEAVY_ATOM_COUNT>  (1) 
11

>  <PUBCHEM_ATOM_DEF_STEREO_COUNT>  (1) 
0

>  <PUBCHEM_ATOM_UDEF_STEREO_COUNT>  (1) 
0

>  <PUBCHEM_BOND_DEF_STEREO_COUNT>  (1) 
0

>  <PUBCHEM_BOND_UDEF_STEREO_COUNT>  (1) 
0

>  <PUBCHEM_ISOTOPIC_ATOM_COUNT>  (1) 
0

>  <PUBCHEM_COMPONENT_COUNT>  (1) 
1

>  <PUBCHEM_CACTVS_TAUTO_COUNT>  (1) 
1

>  <PUBCHEM_CONFORMER_ID>  (1) 
00001CE700000001

>  <PUBCHEM_MMFF94_ENERGY>  (1) 
15.2264

>  <PUBCHEM_FEATURE_SELFOVERLAP>  (1) 
10.148

>  <PUBCHEM_SHAPE_FINGERPRINT>  (1) 
10219947 1 18410011035746610544
11132069 177 18342168960773481280
11401426 45 18411688886185157964
12032990 46 18410015433830265822
124424 183 17749660822971654752
12932764 1 18410858758710517888
14325111 11 18410288129756602012
14993402 34 18341324565707822942
15775835 57 18413671305322964477
16945 1 18411705382969860532
17844478 74 17968391099275654889
18186145 218 18060423525703843048
19026448 4 15864068797720206574
19026448 5 15913326871399931108
200 152 17988915713180983351
20201158 50 18261388923195488571
20645477 70 18266732485519847886
23402539 116 16732974328496084695
23402655 69 18195788705820212485
23557571 272 13830135000711712585
2748010 2 18122344571520767932
29004967 10 18260274022720938192
5084963 1 18271239542526715385
528886 8 18339632369761969620
63268167 104 18342174436255494570

>  <PUBCHEM_SHAPE_MULTIPOLES>  (1) 
232.29
6.4
1.36
1.02
3.86
0
-0.43
-0.02
-0.77
-0.12
0.19
-0.95
0
-0.01

>  <PUBCHEM_SHAPE_SELFOVERLAP>  (1) 
437.299

>  <PUBCHEM_SHAPE_VOLUME>  (1) 
148.6

>  <PUBCHEM_COORDINATE_TYPE>  (1) 
2
5
10

$$$$
