7400
     RDKit          3D

 11 11  0  0  0  0  0  0  0  0999 V2000
    4.0929   -0.0034   -0.0519 Cl  0  0  0  0  0  0  0  0  0  0  0  0
   -2.1617    0.0025    0.0869 S   0  0  0  0  0  0  0  0  0  0  0  0
   -2.6252   -0.0048   -1.4811 O   0  0  0  0  0  0  0  0  0  0  0  0
   -2.6010   -1.2594    0.6649 O   0  0  0  0  0  0  0  0  0  0  0  0
   -2.5726    1.2691    0.6730 O   0  0  0  0  0  0  0  0  0  0  0  0
   -0.4166    0.0007    0.0498 C   0  0  0  0  0  0  0  0  0  0  0  0
    0.2817    1.2080    0.0289 C   0  0  0  0  0  0  0  0  0  0  0  0
    0.2796   -1.2079    0.0389 C   0  0  0  0  0  0  0  0  0  0  0  0
    1.6762    1.2067   -0.0028 C   0  0  0  0  0  0  0  0  0  0  0  0
    1.6742   -1.2093    0.0072 C   0  0  0  0  0  0  0  0  0  0  0  0
    2.3724   -0.0020   -0.0137 C   0  0  0  0  0  0  0  0  0  0  0  0
  1 11  1  0
  2  3  1  0
  2  4  2  0
  2  5  2  0
  2  6  1  0
  6  7  2  0
  6  8  1  0
  7  9  1  0
  8 10  2  0
  9 11  2  0
 10 11  1  0
M  END
>  <PUBCHEM_COMPOUND_CID>  (1) 
7400

>  <PUBCHEM_CONFORMER_RMSD>  (1) 
0.4

>  <PUBCHEM_CONFORMER_DIVERSEORDER>  (1) 
1

>  <PUBCHEM_MMFF94_PARTIAL_CHARGES>  (1) 
16
1 -0.18
10 -0.15
11 0.18
12 0.15
13 0.15
14 0.15
15 0.15
16 0.5
2 1.49
3 -0.68
4 -0.65
5 -0.65
6 -0.01
7 -0.15
8 -0.15
9 -0.15

>  <PUBCHEM_EFFECTIVE_ROTOR_COUNT>  (1) 
1

>  <PUBCHEM_PHARMACOPHORE_FEATURES>  (1) 
5
1 3 acceptor
1 4 acceptor
1 5 acceptor
4 2 3 4 5 anion
6 6 7 8 9 10 11 rings

>  <PUBCHEM_HEAVY_ATOM_COUNT>  (1) 
11

>  <PUBCHEM_ATOM_DEF_STEREO_COUNT>  (1) 
0

>  <PUBCHEM_ATOM_UDEF_STEREO_COUNT>  (1) 
0

>  <PUBCHEM_BOND_DEF_STEREO_COUNT>  (1) 
0

>  <PUBCHEM_BOND_UDEF_STEREO_COUNT>  (1) 
0

>  <PUBCHEM_ISOTOPIC_ATOM_COUNT>  (1) 
0

>  <PUBCHEM_COMPONENT_COUNT>  (1) 
1

>  <PUBCHEM_CACTVS_TAUTO_COUNT>  (1) 
1

>  <PUBCHEM_CONFORMER_ID>  (1) 
00001CE800000001

>  <PUBCHEM_MMFF94_ENERGY>  (1) 
15.59

>  <PUBCHEM_FEATURE_SELFOVERLAP>  (1) 
25.428

>  <PUBCHEM_SHAPE_FINGERPRINT>  (1) 
12032990 46 18411146835569187030
124424 183 17749659727849965850
12897270 3 18408318891113700221
12932764 1 17203608189899783106
14325111 11 18410859875745029712
14993402 34 18131342016688579982
16945 1 18411416219938386530
18186145 218 18187089447029945564
193761 8 17617943526442478770
200 152 18272080647901074791
20201158 50 18334856104035813187
21040471 1 18267025131800875480
23235685 24 18410009931792380936
23402655 69 18268415855508134053
23552423 10 18261398857465322298
2748010 2 18122064470917819412
29004967 10 18409451375300366194
3248919 1 18410007728083774434
5084963 1 17822575026677511333
528886 8 18411135809855122160
8030462 33 18271801315680268117

>  <PUBCHEM_SHAPE_MULTIPOLES>  (1) 
214.49
5.35
1.38
0.82
1.79
0
-0.19
-0.01
-0.14
-0.12
0.15
-0.53
0
0

>  <PUBCHEM_SHAPE_SELFOVERLAP>  (1) 
424.944

>  <PUBCHEM_SHAPE_VOLUME>  (1) 
128.9

>  <PUBCHEM_COORDINATE_TYPE>  (1) 
2
5
10

$$$$
