7404
     RDKit          3D

 13 13  0  0  0  0  0  0  0  0999 V2000
    3.3222   -0.0045    1.7940 Cl  0  0  0  0  0  0  0  0  0  0  0  0
    2.8037    0.0018   -0.1862 S   0  0  0  0  0  0  0  0  0  0  0  0
    3.2576    1.2732   -0.7177 O   0  0  0  0  0  0  0  0  0  0  0  0
    3.2836   -1.2656   -0.7051 O   0  0  0  0  0  0  0  0  0  0  0  0
   -3.7558    1.0957    0.0749 O   0  0  0  0  0  0  0  0  0  0  0  0
   -3.7546   -1.0996    0.0668 O   0  0  0  0  0  0  0  0  0  0  0  0
   -3.1473   -0.0015    0.0474 N   0  0  0  0  0  0  0  0  0  0  0  0
    1.0590    0.0009   -0.1170 C   0  0  0  0  0  0  0  0  0  0  0  0
    0.3614    1.2085   -0.0853 C   0  0  0  0  0  0  0  0  0  0  0  0
    0.3626   -1.2076   -0.0941 C   0  0  0  0  0  0  0  0  0  0  0  0
   -1.7287   -0.0006   -0.0077 C   0  0  0  0  0  0  0  0  0  0  0  0
   -1.0324    1.2077   -0.0306 C   0  0  0  0  0  0  0  0  0  0  0  0
   -1.0313   -1.2083   -0.0395 C   0  0  0  0  0  0  0  0  0  0  0  0
  1  2  1  0
  2  3  2  0
  2  4  2  0
  2  8  1  0
  5  7  1  0
  6  7  2  0
  7 11  1  0
  8  9  2  0
  8 10  1  0
  9 12  1  0
 10 13  2  0
 11 12  2  0
 11 13  1  0
M  CHG  2   5  -1   7   1
M  END
>  <PUBCHEM_COMPOUND_CID>  (1) 
7404

>  <PUBCHEM_CONFORMER_RMSD>  (1) 
0.6

>  <PUBCHEM_CONFORMER_DIVERSEORDER>  (1) 
1

>  <PUBCHEM_MMFF94_PARTIAL_CHARGES>  (1) 
17
1 -0.19
10 -0.15
11 0.13
12 -0.15
13 -0.15
14 0.15
15 0.15
16 0.15
17 0.15
2 1.49
3 -0.65
4 -0.65
5 -0.52
6 -0.52
7 0.91
8 -0.01
9 -0.15

>  <PUBCHEM_EFFECTIVE_ROTOR_COUNT>  (1) 
2

>  <PUBCHEM_PHARMACOPHORE_FEATURES>  (1) 
4
1 5 acceptor
1 5 anion
1 6 acceptor
6 8 9 10 11 12 13 rings

>  <PUBCHEM_HEAVY_ATOM_COUNT>  (1) 
13

>  <PUBCHEM_ATOM_DEF_STEREO_COUNT>  (1) 
0

>  <PUBCHEM_ATOM_UDEF_STEREO_COUNT>  (1) 
0

>  <PUBCHEM_BOND_DEF_STEREO_COUNT>  (1) 
0

>  <PUBCHEM_BOND_UDEF_STEREO_COUNT>  (1) 
0

>  <PUBCHEM_ISOTOPIC_ATOM_COUNT>  (1) 
0

>  <PUBCHEM_COMPONENT_COUNT>  (1) 
1

>  <PUBCHEM_CACTVS_TAUTO_COUNT>  (1) 
1

>  <PUBCHEM_CONFORMER_ID>  (1) 
00001CEC00000001

>  <PUBCHEM_MMFF94_ENERGY>  (1) 
25.9179

>  <PUBCHEM_FEATURE_SELFOVERLAP>  (1) 
20.379

>  <PUBCHEM_SHAPE_FINGERPRINT>  (1) 
10130415 120 18187078464445226224
10219947 1 18411425011557093487
11132069 177 18412820270427620969
11543360 7 14996573948652558883
12032990 46 18411145735714687447
12932764 1 17132112450677711356
13296908 3 18413673499945887671
14144814 61 18408042926590670721
14325111 11 18410296916948433797
14993402 34 18334017219650247685
16945 1 18410567388092234047
18186145 218 17676206870451390342
19026448 4 16415761942126650621
19026448 5 16370725915782893343
193761 8 17545885927793111461
20559304 39 18113612349184091522
20645476 183 17531544181720579478
21501925 9 18338226163188739691
23402539 116 18271517637311423454
23402655 69 18268697317985090717
23463225 33 18334574612063739170
23532345 42 18341326777431234008
23559900 14 18341614776927724894
2748010 2 18122624946627180695
3286 77 17346317047127886626
5084963 1 18271249309583007352
7364860 26 18341897420320201756

>  <PUBCHEM_SHAPE_MULTIPOLES>  (1) 
244.79
6.53
1.42
0.95
1.64
0
-0.39
-0.01
-0.72
0.15
0.17
-1.16
0
-0.01

>  <PUBCHEM_SHAPE_SELFOVERLAP>  (1) 
490.331

>  <PUBCHEM_SHAPE_VOLUME>  (1) 
146.5

>  <PUBCHEM_COORDINATE_TYPE>  (1) 
2
5
10

$$$$
