7425
     RDKit          3D

 11 11  0  0  0  0  0  0  0  0999 V2000
    2.0888   -2.3089   -0.1433 O   0  0  0  0  0  0  0  0  0  0  0  0
    1.9468    2.3318    0.1461 O   0  0  0  0  0  0  0  0  0  0  0  0
   -2.6747   -1.1146    0.5375 O   0  0  0  0  0  0  0  0  0  0  0  0
   -2.9096    0.9218   -0.4762 O   0  0  0  0  0  0  0  0  0  0  0  0
    1.9936    0.0262    0.0026 N   0  0  0  0  0  0  0  0  0  0  0  0
   -0.7558    0.0279   -0.0154 C   0  0  0  0  0  0  0  0  0  0  0  0
   -0.0148   -1.2081   -0.0878 C   0  0  0  0  0  0  0  0  0  0  0  0
   -0.1359    1.2143    0.0631 C   0  0  0  0  0  0  0  0  0  0  0  0
    1.3239   -1.1710   -0.0767 C   0  0  0  0  0  0  0  0  0  0  0  0
    1.3579    1.2560    0.0756 C   0  0  0  0  0  0  0  0  0  0  0  0
   -2.2203    0.0247   -0.0253 C   0  0  0  0  0  0  0  0  0  0  0  0
  1  9  1  0
  2 10  2  0
  3 11  1  0
  4 11  2  0
  5  9  1  0
  5 10  1  0
  6  7  1  0
  6  8  2  0
  6 11  1  0
  7  9  2  0
  8 10  1  0
M  END
>  <PUBCHEM_COMPOUND_CID>  (1) 
7425

>  <PUBCHEM_CONFORMER_RMSD>  (1) 
0.4

>  <PUBCHEM_CONFORMER_DIVERSEORDER>  (1) 
1
3
2

>  <PUBCHEM_MMFF94_PARTIAL_CHARGES>  (1) 
16
1 -0.53
10 0.62
11 0.71
12 0.15
13 0.15
14 0.37
15 0.45
16 0.5
2 -0.57
3 -0.65
4 -0.57
5 -0.54
6 0.01
7 -0.15
8 -0.14
9 0.19

>  <PUBCHEM_EFFECTIVE_ROTOR_COUNT>  (1) 
1

>  <PUBCHEM_PHARMACOPHORE_FEATURES>  (1) 
7
1 1 donor
1 2 acceptor
1 3 acceptor
1 4 acceptor
1 5 donor
3 3 4 11 anion
6 5 6 7 8 9 10 rings

>  <PUBCHEM_HEAVY_ATOM_COUNT>  (1) 
11

>  <PUBCHEM_ATOM_DEF_STEREO_COUNT>  (1) 
0

>  <PUBCHEM_ATOM_UDEF_STEREO_COUNT>  (1) 
0

>  <PUBCHEM_BOND_DEF_STEREO_COUNT>  (1) 
0

>  <PUBCHEM_BOND_UDEF_STEREO_COUNT>  (1) 
0

>  <PUBCHEM_ISOTOPIC_ATOM_COUNT>  (1) 
0

>  <PUBCHEM_COMPONENT_COUNT>  (1) 
1

>  <PUBCHEM_CACTVS_TAUTO_COUNT>  (1) 
2

>  <PUBCHEM_CONFORMER_ID>  (1) 
00001D0100000001

>  <PUBCHEM_MMFF94_ENERGY>  (1) 
24.6112

>  <PUBCHEM_FEATURE_SELFOVERLAP>  (1) 
35.616

>  <PUBCHEM_SHAPE_FINGERPRINT>  (1) 
1 1 18339924943045073044
14325111 11 18266458891712932633
14648413 74 18408322168432450281
16945 1 18412263934539180104
17990270 104 18409727344123942939
19973954 147 18410013221700607737
20201158 50 18336823104715761203
20645477 70 18411975871911364991
20711985 344 17263301530965485118
21040471 1 18051129499584541776
23552423 10 18409169917572102903
241688 4 17907298750023094880
2748010 2 18337392754701925005
29004967 10 18411138008904842307
81228 2 17476366002439619618

>  <PUBCHEM_SHAPE_MULTIPOLES>  (1) 
197.92
3.6
2.14
0.62
2.05
0.01
0
-0.07
0.03
-1.58
-0.02
0.11
-0.01
0.33

>  <PUBCHEM_SHAPE_SELFOVERLAP>  (1) 
417.896

>  <PUBCHEM_SHAPE_VOLUME>  (1) 
110.5

>  <PUBCHEM_COORDINATE_TYPE>  (1) 
2
5
10

$$$$
