7453
     RDKit          3D

 11 11  0  0  1  0  0  0  0  0999 V2000
   -3.6713    0.2340   -0.2687 O   0  0  0  0  0  0  0  0  0  0  0  0
    1.8926   -0.3897    0.4281 C   0  0  0  0  0  0  0  0  0  0  0  0
    2.7259    0.4738   -0.5409 C   0  0  0  0  0  0  0  0  0  0  0  0
    0.3946   -0.2213    0.2403 C   0  0  0  0  0  0  0  0  0  0  0  0
    2.2873   -1.8660    0.2993 C   0  0  0  0  0  0  0  0  0  0  0  0
    2.5138    1.9697   -0.3424 C   0  0  0  0  0  0  0  0  0  0  0  0
   -0.3628    0.2549    1.2923 C   0  0  0  0  0  0  0  0  0  0  0  0
   -0.1685   -0.5503   -0.9773 C   0  0  0  0  0  0  0  0  0  0  0  0
   -1.7385    0.4085    1.1199 C   0  0  0  0  0  0  0  0  0  0  0  0
   -1.5441   -0.3965   -1.1496 C   0  0  0  0  0  0  0  0  0  0  0  0
   -2.3291    0.0829   -0.1011 C   0  0  0  0  0  0  0  0  0  0  0  0
  1 11  1  0
  2  3  1  0
  2  4  1  0
  2  5  1  0
  3  6  1  0
  4  7  2  0
  4  8  1  0
  7  9  1  0
  8 10  2  0
  9 11  2  0
 10 11  1  0
M  END
>  <PUBCHEM_COMPOUND_CID>  (1) 
7453

>  <PUBCHEM_CONFORMER_RMSD>  (1) 
0.4

>  <PUBCHEM_CONFORMER_DIVERSEORDER>  (1) 
1
5
8
4
7
6
3
2

>  <PUBCHEM_MMFF94_PARTIAL_CHARGES>  (1) 
13
1 -0.53
10 -0.15
11 0.08
2 0.14
21 0.15
22 0.15
23 0.15
24 0.15
25 0.45
4 -0.14
7 -0.15
8 -0.15
9 -0.15

>  <PUBCHEM_EFFECTIVE_ROTOR_COUNT>  (1) 
2

>  <PUBCHEM_PHARMACOPHORE_FEATURES>  (1) 
4
1 1 donor
1 5 hydrophobe
1 6 hydrophobe
6 4 7 8 9 10 11 rings

>  <PUBCHEM_HEAVY_ATOM_COUNT>  (1) 
11

>  <PUBCHEM_ATOM_DEF_STEREO_COUNT>  (1) 
0

>  <PUBCHEM_ATOM_UDEF_STEREO_COUNT>  (1) 
1

>  <PUBCHEM_BOND_DEF_STEREO_COUNT>  (1) 
0

>  <PUBCHEM_BOND_UDEF_STEREO_COUNT>  (1) 
0

>  <PUBCHEM_ISOTOPIC_ATOM_COUNT>  (1) 
0

>  <PUBCHEM_COMPONENT_COUNT>  (1) 
1

>  <PUBCHEM_CACTVS_TAUTO_COUNT>  (1) 
2

>  <PUBCHEM_CONFORMER_ID>  (1) 
00001D1D00000001

>  <PUBCHEM_MMFF94_ENERGY>  (1) 
23.0626

>  <PUBCHEM_FEATURE_SELFOVERLAP>  (1) 
20.297

>  <PUBCHEM_SHAPE_FINGERPRINT>  (1) 
10857977 72 15430040980285488269
11031198 65 18114472227153398916
12326174 3 18040989610411920986
12932764 1 17095518466011729019
13538477 17 17917421059984439062
15310529 11 18411416207048222873
15775835 57 18341617082935032596
16945 1 18410580569410201602
18186145 218 17240758429008232701
19026448 4 18040153998775564667
20645464 45 16805601494815262192
20645476 183 18202281433049719743
20653085 51 18189051997744271997
20715346 28 17095821969875525651
21040471 1 16557915493899853003
23552423 10 17988069110195984374
2748010 2 14636309072681229403
3248919 1 18409721859461216571
369184 2 18040716969739618355
5084963 1 18130222640636690562
8030462 33 17989208139886383810

>  <PUBCHEM_SHAPE_MULTIPOLES>  (1) 
220.51
4.64
1.4
1.17
1.25
0.07
-0.08
0.78
0.54
-1.6
0.04
0.35
0
-0.52

>  <PUBCHEM_SHAPE_SELFOVERLAP>  (1) 
447.33

>  <PUBCHEM_SHAPE_VOLUME>  (1) 
129.9

>  <PUBCHEM_COORDINATE_TYPE>  (1) 
2
5
10

$$$$
