7457
     RDKit          3D

 14 14  0  0  0  0  0  0  0  0999 V2000
   -2.7981   -0.4318    0.0001 O   0  0  0  0  0  0  0  0  0  0  0  0
   -2.4989    1.8412   -0.0002 O   0  0  0  0  0  0  0  0  0  0  0  0
    4.3373    0.6073    0.0015 O   0  0  0  0  0  0  0  0  0  0  0  0
    3.9237   -1.5529    0.0003 O   0  0  0  0  0  0  0  0  0  0  0  0
    3.5382   -0.3594    0.0000 N   0  0  0  0  0  0  0  0  0  0  0  0
   -0.5967    0.4303    0.0001 C   0  0  0  0  0  0  0  0  0  0  0  0
    0.3149    1.4862    0.0002 C   0  0  0  0  0  0  0  0  0  0  0  0
   -0.1380   -0.8870   -0.0004 C   0  0  0  0  0  0  0  0  0  0  0  0
    2.1437   -0.0925   -0.0010 C   0  0  0  0  0  0  0  0  0  0  0  0
    1.6850    1.2248   -0.0005 C   0  0  0  0  0  0  0  0  0  0  0  0
    1.2321   -1.1484   -0.0008 C   0  0  0  0  0  0  0  0  0  0  0  0
   -2.0251    0.7030   -0.0001 C   0  0  0  0  0  0  0  0  0  0  0  0
   -4.2167   -0.2353    0.0003 C   0  0  0  0  0  0  0  0  0  0  0  0
   -4.9015   -1.5854    0.0006 C   0  0  0  0  0  0  0  0  0  0  0  0
  1 12  1  0
  1 13  1  0
  2 12  2  0
  3  5  1  0
  4  5  2  0
  5  9  1  0
  6  7  2  0
  6  8  1  0
  6 12  1  0
  7 10  1  0
  8 11  2  0
  9 10  2  0
  9 11  1  0
 13 14  1  0
M  CHG  2   3  -1   5   1
M  END
>  <PUBCHEM_COMPOUND_CID>  (1) 
7457

>  <PUBCHEM_CONFORMER_RMSD>  (1) 
0.6

>  <PUBCHEM_CONFORMER_DIVERSEORDER>  (1) 
1
5
7
2
4
3
6

>  <PUBCHEM_MMFF94_PARTIAL_CHARGES>  (1) 
17
1 -0.43
10 -0.15
11 -0.15
12 0.63
13 0.28
15 0.15
16 0.15
17 0.15
18 0.15
2 -0.57
3 -0.52
4 -0.52
5 0.91
6 0.09
7 -0.15
8 -0.15
9 0.13

>  <PUBCHEM_EFFECTIVE_ROTOR_COUNT>  (1) 
4

>  <PUBCHEM_PHARMACOPHORE_FEATURES>  (1) 
5
1 2 acceptor
1 3 acceptor
1 3 anion
1 4 acceptor
6 6 7 8 9 10 11 rings

>  <PUBCHEM_HEAVY_ATOM_COUNT>  (1) 
14

>  <PUBCHEM_ATOM_DEF_STEREO_COUNT>  (1) 
0

>  <PUBCHEM_ATOM_UDEF_STEREO_COUNT>  (1) 
0

>  <PUBCHEM_BOND_DEF_STEREO_COUNT>  (1) 
0

>  <PUBCHEM_BOND_UDEF_STEREO_COUNT>  (1) 
0

>  <PUBCHEM_ISOTOPIC_ATOM_COUNT>  (1) 
0

>  <PUBCHEM_COMPONENT_COUNT>  (1) 
1

>  <PUBCHEM_CACTVS_TAUTO_COUNT>  (1) 
1

>  <PUBCHEM_CONFORMER_ID>  (1) 
00001D2100000001

>  <PUBCHEM_MMFF94_ENERGY>  (1) 
37.4457

>  <PUBCHEM_FEATURE_SELFOVERLAP>  (1) 
25.452

>  <PUBCHEM_SHAPE_FINGERPRINT>  (1) 
11062470 55 8214142953945113579
11543360 7 15864365669595803046
11806522 49 18408603686284772927
12032990 46 18412266103682365414
13690532 89 18409166610310290778
14252887 29 17846509127029492158
14325111 11 18410575046383095008
14943859 89 9799690402697847045
14993402 34 15430037668865806987
15196674 1 18410575058898569380
15477762 27 18409167735744566796
18522853 276 18413388739424755561
19422 9 18410016490065095028
200 152 18272927233336620725
20645477 70 18408884053081118335
21267235 1 18411427198044022438
21501925 9 18410007749664242448
221490 88 18046069521556979115
22485316 2 18408038494416425843
22959321 4 18338517546908255149
23402539 116 18334570252977824063
23402655 69 18409725136980173453
2871803 45 18260823804790160327
3286 77 18409445899159333908
3312278 4 18269273474129302121
5104073 3 18341330002735448264
7364860 26 18268429221008781616
8809292 202 18187369886809222979

>  <PUBCHEM_SHAPE_MULTIPOLES>  (1) 
259.66
8.44
1.66
0.58
3.29
0.13
0
-3.37
0
0.28
0
0.05
0
0

>  <PUBCHEM_SHAPE_SELFOVERLAP>  (1) 
538.746

>  <PUBCHEM_SHAPE_VOLUME>  (1) 
149.1

>  <PUBCHEM_COORDINATE_TYPE>  (1) 
2
5
10

$$$$
