7459
     RDKit          3D

 10 10  0  0  0  0  0  0  0  0999 V2000
   -0.7370    0.0074   -0.2040 C   0  0  0  0  0  0  0  0  0  0  0  0
   -0.0007    1.2642    0.2769 C   0  0  0  0  0  0  0  0  0  0  0  0
   -0.0067   -1.2608    0.2554 C   0  0  0  0  0  0  0  0  0  0  0  0
    2.1928   -0.0039    0.2959 C   0  0  0  0  0  0  0  0  0  0  0  0
    1.4623    1.2646   -0.1630 C   0  0  0  0  0  0  0  0  0  0  0  0
    1.4562   -1.2606   -0.1847 C   0  0  0  0  0  0  0  0  0  0  0  0
   -2.1823    0.0066    0.2900 C   0  0  0  0  0  0  0  0  0  0  0  0
    3.6376   -0.0034   -0.1995 C   0  0  0  0  0  0  0  0  0  0  0  0
   -2.9195    1.2481   -0.2064 C   0  0  0  0  0  0  0  0  0  0  0  0
   -2.9026   -1.2622   -0.1606 C   0  0  0  0  0  0  0  0  0  0  0  0
  1  2  1  0
  1  3  1  0
  1  7  1  0
  2  5  1  0
  3  6  1  0
  4  5  1  0
  4  6  1  0
  4  8  1  0
  7  9  1  0
  7 10  1  0
M  END
>  <PUBCHEM_COMPOUND_CID>  (1) 
7459

>  <PUBCHEM_CONFORMER_RMSD>  (1) 
0.4

>  <PUBCHEM_CONFORMER_DIVERSEORDER>  (1) 
1
10
7
4
5
8
9
3
2
6

>  <PUBCHEM_MMFF94_PARTIAL_CHARGES>  (1) 
0

>  <PUBCHEM_EFFECTIVE_ROTOR_COUNT>  (1) 
2.2

>  <PUBCHEM_PHARMACOPHORE_FEATURES>  (1) 
2
3 7 9 10 hydrophobe
6 1 2 3 4 5 6 rings

>  <PUBCHEM_HEAVY_ATOM_COUNT>  (1) 
10

>  <PUBCHEM_ATOM_DEF_STEREO_COUNT>  (1) 
0

>  <PUBCHEM_ATOM_UDEF_STEREO_COUNT>  (1) 
0

>  <PUBCHEM_BOND_DEF_STEREO_COUNT>  (1) 
0

>  <PUBCHEM_BOND_UDEF_STEREO_COUNT>  (1) 
0

>  <PUBCHEM_ISOTOPIC_ATOM_COUNT>  (1) 
0

>  <PUBCHEM_COMPONENT_COUNT>  (1) 
1

>  <PUBCHEM_CACTVS_TAUTO_COUNT>  (1) 
1

>  <PUBCHEM_CONFORMER_ID>  (1) 
00001D2300000001

>  <PUBCHEM_MMFF94_ENERGY>  (1) 
13.334

>  <PUBCHEM_FEATURE_SELFOVERLAP>  (1) 
10.148

>  <PUBCHEM_SHAPE_FINGERPRINT>  (1) 
10857977 72 18340477941358764075
11062470 55 17748828496874802780
12032990 46 18413114969740764606
12897270 3 18412825767790541989
12932764 1 18410012130625687067
14128692 85 18342458196255013847
14325111 11 18410574006784692592
15775835 57 18261395516065175021
16945 1 18411136926530775152
19973954 147 18409731776778086157
20201158 50 18410011018102738567
21040471 1 18338516464302079584
21293036 1 18409736196420551844
23235685 24 18410007728416161744
23402539 116 18412819175733245590
23402655 69 18268414747512125229
23552423 10 18334013899782958863
2748010 2 18267302225673729740
29004967 10 18410858745820367434
3312278 4 18413110537102250785
5084963 1 18271246126701030833
528886 8 18411131407524199673
63268167 104 18340489962972206113

>  <PUBCHEM_SHAPE_MULTIPOLES>  (1) 
205.8
5.07
1.57
0.67
0.48
0
0
0
0.38
-0.45
0.03
0
0
0.02

>  <PUBCHEM_SHAPE_SELFOVERLAP>  (1) 
393.558

>  <PUBCHEM_SHAPE_VOLUME>  (1) 
125.6

>  <PUBCHEM_COORDINATE_TYPE>  (1) 
2
5
10

$$$$
