7467
     RDKit          3D

 10 10  0  0  0  0  0  0  0  0999 V2000
    3.8007   -0.0677    0.0006 Cl  0  0  0  0  0  0  0  0  0  0  0  0
   -2.8216    1.1360    0.0006 O   0  0  0  0  0  0  0  0  0  0  0  0
   -0.7085    0.0477   -0.0013 C   0  0  0  0  0  0  0  0  0  0  0  0
   -0.0419   -1.1777   -0.0011 C   0  0  0  0  0  0  0  0  0  0  0  0
    0.0195    1.2375   -0.0007 C   0  0  0  0  0  0  0  0  0  0  0  0
   -2.1624    0.0839   -0.0002 C   0  0  0  0  0  0  0  0  0  0  0  0
    1.3525   -1.2131   -0.0001 C   0  0  0  0  0  0  0  0  0  0  0  0
    1.4139    1.2021    0.0003 C   0  0  0  0  0  0  0  0  0  0  0  0
    2.0804   -0.0232    0.0006 C   0  0  0  0  0  0  0  0  0  0  0  0
   -2.9325   -1.2255    0.0012 C   0  0  0  0  0  0  0  0  0  0  0  0
  1  9  1  0
  2  6  2  0
  3  4  2  0
  3  5  1  0
  3  6  1  0
  4  7  1  0
  5  8  2  0
  6 10  1  0
  7  9  2  0
  8  9  1  0
M  END
>  <PUBCHEM_COMPOUND_CID>  (1) 
7467

>  <PUBCHEM_CONFORMER_RMSD>  (1) 
0.4

>  <PUBCHEM_CONFORMER_DIVERSEORDER>  (1) 
1
2

>  <PUBCHEM_MMFF94_PARTIAL_CHARGES>  (1) 
14
1 -0.18
10 0.06
11 0.15
12 0.15
13 0.15
14 0.15
2 -0.57
3 0.09
4 -0.15
5 -0.15
6 0.42
7 -0.15
8 -0.15
9 0.18

>  <PUBCHEM_EFFECTIVE_ROTOR_COUNT>  (1) 
1

>  <PUBCHEM_PHARMACOPHORE_FEATURES>  (1) 
2
1 2 acceptor
6 3 4 5 7 8 9 rings

>  <PUBCHEM_HEAVY_ATOM_COUNT>  (1) 
10

>  <PUBCHEM_ATOM_DEF_STEREO_COUNT>  (1) 
0

>  <PUBCHEM_ATOM_UDEF_STEREO_COUNT>  (1) 
0

>  <PUBCHEM_BOND_DEF_STEREO_COUNT>  (1) 
0

>  <PUBCHEM_BOND_UDEF_STEREO_COUNT>  (1) 
0

>  <PUBCHEM_ISOTOPIC_ATOM_COUNT>  (1) 
0

>  <PUBCHEM_COMPONENT_COUNT>  (1) 
1

>  <PUBCHEM_CACTVS_TAUTO_COUNT>  (1) 
2

>  <PUBCHEM_CONFORMER_ID>  (1) 
00001D2B00000001

>  <PUBCHEM_MMFF94_ENERGY>  (1) 
24.2545

>  <PUBCHEM_FEATURE_SELFOVERLAP>  (1) 
10.148

>  <PUBCHEM_SHAPE_FINGERPRINT>  (1) 
10857977 72 18411408535957090106
12032990 46 18412270540563144606
12897270 3 18410290319989345975
12932764 1 17312813870861382709
14128692 85 18342458196281459119
14325111 11 18410574006869062624
16945 1 18410573959466082372
193761 8 17546165203904822030
20201158 50 18408603651883057395
21040471 1 18338516472881490596
23235685 24 18410569574547144232
23380061 330 18342171202234953782
23402655 69 18196637528960379213
23463225 33 18334854983571510402
23552423 10 18333453148789502623
2748010 2 18266456701237225340
29004967 10 18409732845871313779
5084963 1 18270965751220123673
528886 8 18411412882490334809

>  <PUBCHEM_SHAPE_MULTIPOLES>  (1) 
201.8
5.02
1.45
0.61
0.83
0.02
0
-0.4
0
-0.34
0
0.04
-0.01
0

>  <PUBCHEM_SHAPE_SELFOVERLAP>  (1) 
410.086

>  <PUBCHEM_SHAPE_VOLUME>  (1) 
119.2

>  <PUBCHEM_COORDINATE_TYPE>  (1) 
2
5
10

$$$$
