7482
     RDKit          3D

 11 11  0  0  0  0  0  0  0  0999 V2000
   -3.9596    0.0003   -1.0657 Cl  0  0  0  0  0  0  0  0  0  0  0  0
    3.1236    1.0977   -0.2061 O   0  0  0  0  0  0  0  0  0  0  0  0
    3.1237   -1.0975   -0.2064 O   0  0  0  0  0  0  0  0  0  0  0  0
    2.5194    0.0000   -0.1373 N   0  0  0  0  0  0  0  0  0  0  0  0
   -1.6628    0.0000    0.3430 C   0  0  0  0  0  0  0  0  0  0  0  0
    1.1087   -0.0001    0.0240 C   0  0  0  0  0  0  0  0  0  0  0  0
   -0.9700    1.2080    0.2634 C   0  0  0  0  0  0  0  0  0  0  0  0
   -0.9700   -1.2081    0.2632 C   0  0  0  0  0  0  0  0  0  0  0  0
    0.4156    1.2079    0.1038 C   0  0  0  0  0  0  0  0  0  0  0  0
    0.4158   -1.2082    0.1037 C   0  0  0  0  0  0  0  0  0  0  0  0
   -3.1442   -0.0002    0.5143 C   0  0  0  0  0  0  0  0  0  0  0  0
  1 11  1  0
  2  4  1  0
  3  4  2  0
  4  6  1  0
  5  7  2  0
  5  8  1  0
  5 11  1  0
  6  9  2  0
  6 10  1  0
  7  9  1  0
  8 10  2  0
M  CHG  2   2  -1   4   1
M  END
>  <PUBCHEM_COMPOUND_CID>  (1) 
7482

>  <PUBCHEM_CONFORMER_RMSD>  (1) 
0.4

>  <PUBCHEM_CONFORMER_DIVERSEORDER>  (1) 
1
2

>  <PUBCHEM_MMFF94_PARTIAL_CHARGES>  (1) 
15
1 -0.29
10 -0.15
11 0.43
12 0.15
13 0.15
14 0.15
15 0.15
2 -0.52
3 -0.52
4 0.91
5 -0.14
6 0.13
7 -0.15
8 -0.15
9 -0.15

>  <PUBCHEM_EFFECTIVE_ROTOR_COUNT>  (1) 
2

>  <PUBCHEM_PHARMACOPHORE_FEATURES>  (1) 
4
1 2 acceptor
1 2 anion
1 3 acceptor
6 5 6 7 8 9 10 rings

>  <PUBCHEM_HEAVY_ATOM_COUNT>  (1) 
11

>  <PUBCHEM_ATOM_DEF_STEREO_COUNT>  (1) 
0

>  <PUBCHEM_ATOM_UDEF_STEREO_COUNT>  (1) 
0

>  <PUBCHEM_BOND_DEF_STEREO_COUNT>  (1) 
0

>  <PUBCHEM_BOND_UDEF_STEREO_COUNT>  (1) 
0

>  <PUBCHEM_ISOTOPIC_ATOM_COUNT>  (1) 
0

>  <PUBCHEM_COMPONENT_COUNT>  (1) 
1

>  <PUBCHEM_CACTVS_TAUTO_COUNT>  (1) 
1

>  <PUBCHEM_CONFORMER_ID>  (1) 
00001D3A00000001

>  <PUBCHEM_MMFF94_ENERGY>  (1) 
28.6442

>  <PUBCHEM_FEATURE_SELFOVERLAP>  (1) 
20.379

>  <PUBCHEM_SHAPE_FINGERPRINT>  (1) 
10219947 1 18411142432868726691
11062470 55 17603303756519916365
11206711 2 18336267825679581853
11401426 45 18341601612436023161
12032990 46 18409740555585828755
12897270 3 18335985289761214905
14325111 11 18410860953475852961
14911166 2 18409729569043382063
14993402 34 18060698416163171909
16945 1 18410580582268690723
18186145 218 18113340786511864871
19026448 4 16588029017293212505
19026448 5 16630531725891613179
193761 8 17617380576156767675
20201158 50 18411140220755094254
20645477 70 18410855430137809135
21293036 1 18409443713384619733
23235685 24 18409446998850030297
23402539 116 18130499747615791500
23402655 69 18266161869888339581
23552423 10 18260556653487092930
2748010 2 18051137183069732547
369184 2 18411425011636221290
5084963 1 18272653398510643834
528886 8 18411416241244535099

>  <PUBCHEM_SHAPE_MULTIPOLES>  (1) 
211.52
5.58
1.33
0.77
1.01
0
-0.08
0
-1.46
-0.47
0.06
0.57
0
0

>  <PUBCHEM_SHAPE_SELFOVERLAP>  (1) 
429.691

>  <PUBCHEM_SHAPE_VOLUME>  (1) 
124.4

>  <PUBCHEM_COORDINATE_TYPE>  (1) 
2
5
10

$$$$
