7503
     RDKit          3D

  8  8  0  0  0  0  0  0  0  0999 V2000
    2.9683   -0.0001    0.8219 Cl  0  0  0  0  0  0  0  0  0  0  0  0
    0.5344    0.0001   -0.3339 C   0  0  0  0  0  0  0  0  0  0  0  0
   -0.1460    1.2081   -0.1802 C   0  0  0  0  0  0  0  0  0  0  0  0
   -0.1458   -1.2079   -0.1803 C   0  0  0  0  0  0  0  0  0  0  0  0
    1.9892    0.0001   -0.6623 C   0  0  0  0  0  0  0  0  0  0  0  0
   -1.5066    1.2079    0.1271 C   0  0  0  0  0  0  0  0  0  0  0  0
   -1.5065   -1.2080    0.1270 C   0  0  0  0  0  0  0  0  0  0  0  0
   -2.1869   -0.0001    0.2807 C   0  0  0  0  0  0  0  0  0  0  0  0
  1  5  1  0
  2  3  2  0
  2  4  1  0
  2  5  1  0
  3  6  1  0
  4  7  2  0
  6  8  2  0
  7  8  1  0
M  END
>  <PUBCHEM_COMPOUND_CID>  (1) 
7503

>  <PUBCHEM_CONFORMER_RMSD>  (1) 
0.4

>  <PUBCHEM_CONFORMER_DIVERSEORDER>  (1) 
1
2

>  <PUBCHEM_MMFF94_PARTIAL_CHARGES>  (1) 
13
1 -0.29
10 0.15
13 0.15
14 0.15
15 0.15
2 -0.14
3 -0.15
4 -0.15
5 0.43
6 -0.15
7 -0.15
8 -0.15
9 0.15

>  <PUBCHEM_EFFECTIVE_ROTOR_COUNT>  (1) 
1

>  <PUBCHEM_PHARMACOPHORE_FEATURES>  (1) 
1
6 2 3 4 6 7 8 rings

>  <PUBCHEM_HEAVY_ATOM_COUNT>  (1) 
8

>  <PUBCHEM_ATOM_DEF_STEREO_COUNT>  (1) 
0

>  <PUBCHEM_ATOM_UDEF_STEREO_COUNT>  (1) 
0

>  <PUBCHEM_BOND_DEF_STEREO_COUNT>  (1) 
0

>  <PUBCHEM_BOND_UDEF_STEREO_COUNT>  (1) 
0

>  <PUBCHEM_ISOTOPIC_ATOM_COUNT>  (1) 
0

>  <PUBCHEM_COMPONENT_COUNT>  (1) 
1

>  <PUBCHEM_CACTVS_TAUTO_COUNT>  (1) 
1

>  <PUBCHEM_CONFORMER_ID>  (1) 
00001D4F00000001

>  <PUBCHEM_MMFF94_ENERGY>  (1) 
16.4475

>  <PUBCHEM_FEATURE_SELFOVERLAP>  (1) 
5.074

>  <PUBCHEM_SHAPE_FINGERPRINT>  (1) 
10857977 72 18341891934881807456
15310529 11 16588032345703008404
16714656 1 18410583885103816079
16945 1 18410864256421624655
20645464 45 17917709098098231306
20653085 51 14261364547794377122
21040471 1 18266189322353684253
23552423 10 17826522359278537756
2748010 2 18049454642827630445
29004967 10 16558760000529224598
369184 2 18412254039140239074
5084963 1 18271539593231700086

>  <PUBCHEM_SHAPE_MULTIPOLES>  (1) 
166.51
3.49
1.34
0.8
2.16
0
0.03
0
0.84
-0.61
-0.02
0.35
0
0

>  <PUBCHEM_SHAPE_SELFOVERLAP>  (1) 
330.297

>  <PUBCHEM_SHAPE_VOLUME>  (1) 
96.7

>  <PUBCHEM_COORDINATE_TYPE>  (1) 
2
5
10

$$$$
