7518
     RDKit          3D

  8  8  0  0  0  0  0  0  0  0999 V2000
    2.8995   -0.4160    0.0117 O   0  0  0  0  0  0  0  0  0  0  0  0
    1.9373    0.5618   -0.0092 N   0  0  0  0  0  0  0  0  0  0  0  0
    0.5579    0.2672   -0.0042 C   0  0  0  0  0  0  0  0  0  0  0  0
   -0.3766    1.3028    0.0005 C   0  0  0  0  0  0  0  0  0  0  0  0
    0.1284   -1.0598   -0.0051 C   0  0  0  0  0  0  0  0  0  0  0  0
   -1.7407    1.0112    0.0043 C   0  0  0  0  0  0  0  0  0  0  0  0
   -1.2356   -1.3514   -0.0013 C   0  0  0  0  0  0  0  0  0  0  0  0
   -2.1702   -0.3159    0.0033 C   0  0  0  0  0  0  0  0  0  0  0  0
  1  2  1  0
  2  3  1  0
  3  4  2  0
  3  5  1  0
  4  6  1  0
  5  7  2  0
  6  8  2  0
  7  8  1  0
M  END
>  <PUBCHEM_COMPOUND_CID>  (1) 
7518

>  <PUBCHEM_CONFORMER_RMSD>  (1) 
0.4

>  <PUBCHEM_CONFORMER_DIVERSEORDER>  (1) 
1
2

>  <PUBCHEM_MMFF94_PARTIAL_CHARGES>  (1) 
15
1 -0.38
10 0.15
11 0.15
12 0.15
13 0.15
14 0.4
15 0.4
2 -0.52
3 0.1
4 -0.15
5 -0.15
6 -0.15
7 -0.15
8 -0.15
9 0.15

>  <PUBCHEM_EFFECTIVE_ROTOR_COUNT>  (1) 
1

>  <PUBCHEM_PHARMACOPHORE_FEATURES>  (1) 
2
1 1 anion
6 3 4 5 6 7 8 rings

>  <PUBCHEM_HEAVY_ATOM_COUNT>  (1) 
8

>  <PUBCHEM_ATOM_DEF_STEREO_COUNT>  (1) 
0

>  <PUBCHEM_ATOM_UDEF_STEREO_COUNT>  (1) 
0

>  <PUBCHEM_BOND_DEF_STEREO_COUNT>  (1) 
0

>  <PUBCHEM_BOND_UDEF_STEREO_COUNT>  (1) 
0

>  <PUBCHEM_ISOTOPIC_ATOM_COUNT>  (1) 
0

>  <PUBCHEM_COMPONENT_COUNT>  (1) 
1

>  <PUBCHEM_CACTVS_TAUTO_COUNT>  (1) 
1

>  <PUBCHEM_CONFORMER_ID>  (1) 
00001D5E00000001

>  <PUBCHEM_MMFF94_ENERGY>  (1) 
23.708

>  <PUBCHEM_FEATURE_SELFOVERLAP>  (1) 
10.148

>  <PUBCHEM_SHAPE_FINGERPRINT>  (1) 
16714656 1 18410294717856534925
18185500 45 18263641934274321335
21040471 1 18338517422079916453
23552423 10 18187648063060743142
29004967 10 18341056331698502370
369184 2 15339117931341550518
5084963 1 18413388743540264345

>  <PUBCHEM_SHAPE_MULTIPOLES>  (1) 
153.79
3.05
1.42
0.59
1.86
0.03
0
0.16
-0.01
-0.43
0
-0.06
0
0

>  <PUBCHEM_SHAPE_SELFOVERLAP>  (1) 
314.639

>  <PUBCHEM_SHAPE_VOLUME>  (1) 
89.1

>  <PUBCHEM_COORDINATE_TYPE>  (1) 
2
5
10

$$$$
