7527
     RDKit          3D

  8  9  0  0  0  0  0  0  0  0999 V2000
    1.2842    0.0003    0.0001 N   0  0  0  0  0  0  0  0  0  0  0  0
   -1.3159   -0.0002    0.0000 C   0  0  0  0  0  0  0  0  0  0  0  0
   -0.7627   -1.4015   -0.2992 C   0  0  0  0  0  0  0  0  0  0  0  0
   -0.7632    0.9596   -1.0640 C   0  0  0  0  0  0  0  0  0  0  0  0
   -0.7633    0.4414    1.3631 C   0  0  0  0  0  0  0  0  0  0  0  0
    0.7739   -1.3579   -0.2884 C   0  0  0  0  0  0  0  0  0  0  0  0
    0.7735    0.9290   -1.0318 C   0  0  0  0  0  0  0  0  0  0  0  0
    0.7736    0.4293    1.3203 C   0  0  0  0  0  0  0  0  0  0  0  0
  1  6  1  0
  1  7  1  0
  1  8  1  0
  2  3  1  0
  2  4  1  0
  2  5  1  0
  3  6  1  0
  4  7  1  0
  5  8  1  0
M  END
>  <PUBCHEM_COMPOUND_CID>  (1) 
7527

>  <PUBCHEM_CONFORMER_RMSD>  (1) 
0.4

>  <PUBCHEM_CONFORMER_DIVERSEORDER>  (1) 
1

>  <PUBCHEM_MMFF94_PARTIAL_CHARGES>  (1) 
4
1 -0.81
6 0.27
7 0.27
8 0.27

>  <PUBCHEM_EFFECTIVE_ROTOR_COUNT>  (1) 
1.2

>  <PUBCHEM_PHARMACOPHORE_FEATURES>  (1) 
2
1 1 cation
8 1 2 3 4 5 6 7 8 rings

>  <PUBCHEM_HEAVY_ATOM_COUNT>  (1) 
8

>  <PUBCHEM_ATOM_DEF_STEREO_COUNT>  (1) 
0

>  <PUBCHEM_ATOM_UDEF_STEREO_COUNT>  (1) 
0

>  <PUBCHEM_BOND_DEF_STEREO_COUNT>  (1) 
0

>  <PUBCHEM_BOND_UDEF_STEREO_COUNT>  (1) 
0

>  <PUBCHEM_ISOTOPIC_ATOM_COUNT>  (1) 
0

>  <PUBCHEM_COMPONENT_COUNT>  (1) 
1

>  <PUBCHEM_CACTVS_TAUTO_COUNT>  (1) 
1

>  <PUBCHEM_CONFORMER_ID>  (1) 
00001D6700000001

>  <PUBCHEM_MMFF94_ENERGY>  (1) 
16.6775

>  <PUBCHEM_FEATURE_SELFOVERLAP>  (1) 
10.148

>  <PUBCHEM_SHAPE_FINGERPRINT>  (1) 
12423570 1 13603754567272798857
13024252 1 14224819366884178621
137420 1 15587930063891583033
21040471 1 15721367409335015133
29004967 10 9573676613384441437
5943 1 11406626161155392647

>  <PUBCHEM_SHAPE_MULTIPOLES>  (1) 
159.66
1.45
1.38
1.38
0.02
0.09
0.54
0
0
0
-0.54
0
-0.09
0

>  <PUBCHEM_SHAPE_SELFOVERLAP>  (1) 
327.938

>  <PUBCHEM_SHAPE_VOLUME>  (1) 
87

>  <PUBCHEM_COORDINATE_TYPE>  (1) 
2
5
10

$$$$
