7539
     RDKit          3D

 22 24  0  0  0  0  0  0  0  0999 V2000
    1.3411   -0.2043    0.7939 N   0  0  0  0  0  0  0  0  0  0  0  0
   -0.9418   -0.6998    0.7190 N   0  0  0  0  0  0  0  0  0  0  0  0
   -0.1870    1.5299    0.2794 N   0  0  0  0  0  0  0  0  0  0  0  0
    0.0546    0.2623    0.5474 C   0  0  0  0  0  0  0  0  0  0  0  0
    2.5755    0.3176    0.3516 C   0  0  0  0  0  0  0  0  0  0  0  0
   -0.9852   -2.0427    0.2790 C   0  0  0  0  0  0  0  0  0  0  0  0
   -1.5009    1.9574    0.0637 C   0  0  0  0  0  0  0  0  0  0  0  0
    3.7038    0.2232    1.1657 C   0  0  0  0  0  0  0  0  0  0  0  0
   -1.8475   -2.9474    0.8946 C   0  0  0  0  0  0  0  0  0  0  0  0
    2.6656    0.9277   -0.8991 C   0  0  0  0  0  0  0  0  0  0  0  0
   -0.1650   -2.4566   -0.7684 C   0  0  0  0  0  0  0  0  0  0  0  0
    4.9235    0.7398    0.7287 C   0  0  0  0  0  0  0  0  0  0  0  0
   -1.8897   -4.2725    0.4609 C   0  0  0  0  0  0  0  0  0  0  0  0
    3.8855    1.4440   -1.3360 C   0  0  0  0  0  0  0  0  0  0  0  0
   -0.2073   -3.7816   -1.2021 C   0  0  0  0  0  0  0  0  0  0  0  0
   -2.2760    2.3972    1.1369 C   0  0  0  0  0  0  0  0  0  0  0  0
   -2.0367    1.9437   -1.2241 C   0  0  0  0  0  0  0  0  0  0  0  0
    5.0144    1.3501   -0.5221 C   0  0  0  0  0  0  0  0  0  0  0  0
   -1.0697   -4.6895   -0.5874 C   0  0  0  0  0  0  0  0  0  0  0  0
   -3.5869    2.8229    0.9223 C   0  0  0  0  0  0  0  0  0  0  0  0
   -3.3476    2.3695   -1.4387 C   0  0  0  0  0  0  0  0  0  0  0  0
   -4.1227    2.8092   -0.3653 C   0  0  0  0  0  0  0  0  0  0  0  0
  1  4  1  0
  1  5  1  0
  2  4  1  0
  2  6  1  0
  3  4  2  3
  3  7  1  0
  5  8  2  0
  5 10  1  0
  6  9  2  0
  6 11  1  0
  7 16  2  0
  7 17  1  0
  8 12  1  0
  9 13  1  0
 10 14  2  0
 11 15  2  0
 12 18  2  0
 13 19  2  0
 14 18  1  0
 15 19  1  0
 16 20  1  0
 17 21  2  0
 20 22  2  0
 21 22  1  0
M  END
>  <PUBCHEM_COMPOUND_CID>  (1) 
7539

>  <PUBCHEM_CONFORMER_RMSD>  (1) 
0.8

>  <PUBCHEM_CONFORMER_DIVERSEORDER>  (1) 
1
13
7
2
5
6
15
17
4
10
3
11
9
14
8
16
12

>  <PUBCHEM_MMFF94_PARTIAL_CHARGES>  (1) 
39
1 -0.55
10 -0.15
11 -0.15
12 -0.15
13 -0.15
14 -0.15
15 -0.15
16 -0.15
17 -0.15
18 -0.15
19 -0.15
2 -0.55
20 -0.15
21 -0.15
22 -0.15
23 0.4
24 0.4
25 0.15
26 0.15
27 0.15
28 0.15
29 0.15
3 -0.63
30 0.15
31 0.15
32 0.15
33 0.15
34 0.15
35 0.15
36 0.15
37 0.15
38 0.15
39 0.15
4 0.55
5 0.1
6 0.1
7 0.18
8 -0.15
9 -0.15

>  <PUBCHEM_EFFECTIVE_ROTOR_COUNT>  (1) 
5

>  <PUBCHEM_PHARMACOPHORE_FEATURES>  (1) 
6
1 1 donor
1 2 donor
4 1 2 3 4 cation
6 5 8 10 12 14 18 rings
6 6 9 11 13 15 19 rings
6 7 16 17 20 21 22 rings

>  <PUBCHEM_HEAVY_ATOM_COUNT>  (1) 
22

>  <PUBCHEM_ATOM_DEF_STEREO_COUNT>  (1) 
0

>  <PUBCHEM_ATOM_UDEF_STEREO_COUNT>  (1) 
0

>  <PUBCHEM_BOND_DEF_STEREO_COUNT>  (1) 
0

>  <PUBCHEM_BOND_UDEF_STEREO_COUNT>  (1) 
0

>  <PUBCHEM_ISOTOPIC_ATOM_COUNT>  (1) 
0

>  <PUBCHEM_COMPONENT_COUNT>  (1) 
1

>  <PUBCHEM_CACTVS_TAUTO_COUNT>  (1) 
1

>  <PUBCHEM_CONFORMER_ID>  (1) 
00001D7300000001

>  <PUBCHEM_MMFF94_ENERGY>  (1) 
89.564

>  <PUBCHEM_FEATURE_SELFOVERLAP>  (1) 
30.489

>  <PUBCHEM_SHAPE_FINGERPRINT>  (1) 
11045515 52 17759522565957299078
11101153 10 17685500149833094524
121448 382 18271231760167729669
12160290 23 18193811920856136291
12553582 1 17618495928099425394
12643181 29 18339930291435203150
12788726 201 18190731123487653762
13004483 165 17978229683644489523
13052359 8 18410006654384239505
13257819 37 18408895018211434935
133893 2 17621879790817941745
13540713 5 17968089894005462192
13583140 156 17774426305408507832
13681431 1 17111847626591072155
13955234 65 17835530314906699393
13968360 50 18119511168842803981
14251757 5 18265611172737914359
16752209 62 18339067289568235586
17138139 8 17839136936510276461
17539 30 18196084667046053911
1813 80 17620204560272976334
18785283 64 17976548208343345291
204376 136 18263643978758447313
20567600 347 18129369406823489485
20600515 1 17482299374936395223
21285901 2 17985288471101945431
2255824 54 17693091869046118919
22907989 373 18266463285385193300
23366157 5 17689718554450406969
23419403 2 17126253088931371311
23557571 272 18201154477156181784
23566358 27 17765439743023639977
23598288 3 18260551173077175050
3057174 1 18267018354121086375
3091708 16 9269527894411694667
340366 18 18189625960515891606
352729 6 18267303140449003818
4409770 3 18338793528405737431
458136 41 18124604080753724969
59025328 239 16548866852542967303
59755656 520 18340769243606061988
633830 44 17985833614120963469
6691757 9 18270946978487844234
6786 2 18339368448417299071
7164475 11 18191023615756461628
81228 2 18264762349470991121

>  <PUBCHEM_SHAPE_MULTIPOLES>  (1) 
437.81
7.93
6.06
1.33
9.41
8.76
0.19
-8.87
0.21
-7.8
0.93
-0.03
-0.28
0.03

>  <PUBCHEM_SHAPE_SELFOVERLAP>  (1) 
946.224

>  <PUBCHEM_SHAPE_VOLUME>  (1) 
235

>  <PUBCHEM_COORDINATE_TYPE>  (1) 
2
5
10

$$$$
