7540
     RDKit          3D

 22 24  0  0  0  0  0  0  0  0999 V2000
   -0.6129    0.7100    0.3302 P   0  0  0  0  0  0  0  0  0  0  0  0
   -1.9706    1.0892   -0.4739 O   0  0  0  0  0  0  0  0  0  0  0  0
    0.4246    1.5986   -0.5402 O   0  0  0  0  0  0  0  0  0  0  0  0
   -0.3271   -0.7258   -0.3594 O   0  0  0  0  0  0  0  0  0  0  0  0
   -3.2296    0.6428   -0.2141 C   0  0  0  0  0  0  0  0  0  0  0  0
    1.7763    1.6800   -0.3176 C   0  0  0  0  0  0  0  0  0  0  0  0
    0.7282   -1.5557   -0.0734 C   0  0  0  0  0  0  0  0  0  0  0  0
   -3.8186    0.8979    1.0244 C   0  0  0  0  0  0  0  0  0  0  0  0
    2.2437    2.1509    0.9029 C   0  0  0  0  0  0  0  0  0  0  0  0
    1.2766   -1.5529    1.2029 C   0  0  0  0  0  0  0  0  0  0  0  0
   -3.9311   -0.0704   -1.1863 C   0  0  0  0  0  0  0  0  0  0  0  0
    2.6604    1.2907   -1.3161 C   0  0  0  0  0  0  0  0  0  0  0  0
    1.2345   -2.3873   -1.0641 C   0  0  0  0  0  0  0  0  0  0  0  0
   -5.1089    0.4397    1.2907 C   0  0  0  0  0  0  0  0  0  0  0  0
    3.6177    2.2342    1.1287 C   0  0  0  0  0  0  0  0  0  0  0  0
    2.3495   -2.3956    1.4932 C   0  0  0  0  0  0  0  0  0  0  0  0
   -5.2214   -0.5285   -0.9198 C   0  0  0  0  0  0  0  0  0  0  0  0
    4.0343    1.3740   -1.0902 C   0  0  0  0  0  0  0  0  0  0  0  0
    2.3072   -3.2302   -0.7736 C   0  0  0  0  0  0  0  0  0  0  0  0
   -5.8102   -0.2734    0.3187 C   0  0  0  0  0  0  0  0  0  0  0  0
    4.5130    1.8458    0.1321 C   0  0  0  0  0  0  0  0  0  0  0  0
    2.8647   -3.2342    0.5050 C   0  0  0  0  0  0  0  0  0  0  0  0
  1  2  1  0
  1  3  1  0
  1  4  1  0
  2  5  1  0
  3  6  1  0
  4  7  1  0
  5  8  2  0
  5 11  1  0
  6  9  2  0
  6 12  1  0
  7 10  2  0
  7 13  1  0
  8 14  1  0
  9 15  1  0
 10 16  1  0
 11 17  2  0
 12 18  2  0
 13 19  2  0
 14 20  2  0
 15 21  2  0
 16 22  2  0
 17 20  1  0
 18 21  1  0
 19 22  1  0
M  END
>  <PUBCHEM_COMPOUND_CID>  (1) 
7540

>  <PUBCHEM_CONFORMER_RMSD>  (1) 
0.8

>  <PUBCHEM_CONFORMER_DIVERSEORDER>  (1) 
1
5
8
18
14
12
2
17
7
6
3
9
15
11
4
16
13
10

>  <PUBCHEM_MMFF94_PARTIAL_CHARGES>  (1) 
37
1 0.3
10 -0.15
11 -0.15
12 -0.15
13 -0.15
14 -0.15
15 -0.15
16 -0.15
17 -0.15
18 -0.15
19 -0.15
2 -0.18
20 -0.15
21 -0.15
22 -0.15
23 0.15
24 0.15
25 0.15
26 0.15
27 0.15
28 0.15
29 0.15
3 -0.18
30 0.15
31 0.15
32 0.15
33 0.15
34 0.15
35 0.15
36 0.15
37 0.15
4 -0.18
5 0.08
6 0.08
7 0.08
8 -0.15
9 -0.15

>  <PUBCHEM_EFFECTIVE_ROTOR_COUNT>  (1) 
6

>  <PUBCHEM_PHARMACOPHORE_FEATURES>  (1) 
3
6 5 8 11 14 17 20 rings
6 6 9 12 15 18 21 rings
6 7 10 13 16 19 22 rings

>  <PUBCHEM_HEAVY_ATOM_COUNT>  (1) 
22

>  <PUBCHEM_ATOM_DEF_STEREO_COUNT>  (1) 
0

>  <PUBCHEM_ATOM_UDEF_STEREO_COUNT>  (1) 
0

>  <PUBCHEM_BOND_DEF_STEREO_COUNT>  (1) 
0

>  <PUBCHEM_BOND_UDEF_STEREO_COUNT>  (1) 
0

>  <PUBCHEM_ISOTOPIC_ATOM_COUNT>  (1) 
0

>  <PUBCHEM_COMPONENT_COUNT>  (1) 
1

>  <PUBCHEM_CACTVS_TAUTO_COUNT>  (1) 
1

>  <PUBCHEM_CONFORMER_ID>  (1) 
00001D7400000001

>  <PUBCHEM_MMFF94_ENERGY>  (1) 
68.2692

>  <PUBCHEM_FEATURE_SELFOVERLAP>  (1) 
15.223

>  <PUBCHEM_SHAPE_FINGERPRINT>  (1) 
11963148 33 17970342827216377803
12422481 6 18118372139315760072
12592029 89 18334294288212273160
12597179 24 18114186388152676122
12644460 14 18412548691129556251
13009979 54 17486499200306661354
13140716 1 18048600614456801561
13257819 101 16878212169045541092
133893 2 18044115483125195200
13533116 47 18412265013514981539
146900 427 18343024410652618857
14863182 85 18333736835800991132
14955137 171 18199744740061656082
15238133 3 16629689410391778435
15502722 9 18335138670039556197
15849732 13 17603863455906301180
1813 80 18053947255628607463
20567600 347 18335984254827174858
20600515 1 17399498045146261672
20645477 70 18335128757698116471
20691752 17 16878796967334520716
21054139 6 18126837420876866151
21421861 104 18199762348863100113
22182313 1 17895183360525472021
22956985 138 17823965754600824218
23419403 2 17607499381538917166
23559900 14 16805894996032983863
312423 11 18339931394497427817
3411729 13 18408324375977036280
42630746 31 18409449184772080078
465052 167 17023183867979249080
5895379 119 17056979363703513785
59755656 215 18334011687700916804
59755656 520 18270395130856311548
633830 44 18059012916188176853
7364860 26 18340767057398889622
81228 2 17401196172025160504
81539 233 18186802504148364876
9841814 1 18189896409478584338

>  <PUBCHEM_SHAPE_MULTIPOLES>  (1) 
438.99
10.86
3.51
1.38
16.23
2.71
0.1
-3.09
0.44
-6.09
0.3
-0.15
0.12
-0.59

>  <PUBCHEM_SHAPE_SELFOVERLAP>  (1) 
933.609

>  <PUBCHEM_SHAPE_VOLUME>  (1) 
243.1

>  <PUBCHEM_COORDINATE_TYPE>  (1) 
2
5
10

$$$$
