7545
     RDKit          3D

 14 15  0  0  0  0  0  0  0  0999 V2000
    3.1155   -2.5713    0.5733 Cl  0  0  0  0  0  0  0  0  0  0  0  0
   -0.3428    1.2015    0.2095 N   0  0  0  0  0  0  0  0  0  0  0  0
    0.9964    0.7868    0.0753 C   0  0  0  0  0  0  0  0  0  0  0  0
   -1.5715    0.5236    0.0680 C   0  0  0  0  0  0  0  0  0  0  0  0
    1.3518   -0.5332    0.3582 C   0  0  0  0  0  0  0  0  0  0  0  0
    1.9712    1.6948   -0.3418 C   0  0  0  0  0  0  0  0  0  0  0  0
   -2.6788    0.9227    0.8165 C   0  0  0  0  0  0  0  0  0  0  0  0
   -1.6793   -0.5464   -0.8205 C   0  0  0  0  0  0  0  0  0  0  0  0
    2.6782   -0.9439    0.2243 C   0  0  0  0  0  0  0  0  0  0  0  0
    3.2974    1.2843   -0.4756 C   0  0  0  0  0  0  0  0  0  0  0  0
   -3.8937    0.2517    0.6769 C   0  0  0  0  0  0  0  0  0  0  0  0
   -2.8941   -1.2173   -0.9601 C   0  0  0  0  0  0  0  0  0  0  0  0
    3.6510   -0.0351   -0.1928 C   0  0  0  0  0  0  0  0  0  0  0  0
   -4.0013   -0.8182   -0.2113 C   0  0  0  0  0  0  0  0  0  0  0  0
  1  9  1  0
  2  3  1  0
  2  4  1  0
  3  5  2  0
  3  6  1  0
  4  7  2  0
  4  8  1  0
  5  9  1  0
  6 10  2  0
  7 11  1  0
  8 12  2  0
  9 13  2  0
 10 13  1  0
 11 14  2  0
 12 14  1  0
M  END
>  <PUBCHEM_COMPOUND_CID>  (1) 
7545

>  <PUBCHEM_CONFORMER_RMSD>  (1) 
0.6

>  <PUBCHEM_CONFORMER_DIVERSEORDER>  (1) 
1
4
5
3
6
2

>  <PUBCHEM_MMFF94_PARTIAL_CHARGES>  (1) 
24
1 -0.18
10 -0.15
11 -0.15
12 -0.15
13 -0.15
14 -0.15
15 0.4
16 0.15
17 0.15
18 0.15
19 0.15
2 -0.6
20 0.15
21 0.15
22 0.15
23 0.15
24 0.15
3 0.1
4 0.1
5 -0.15
6 -0.15
7 -0.15
8 -0.15
9 0.18

>  <PUBCHEM_EFFECTIVE_ROTOR_COUNT>  (1) 
2

>  <PUBCHEM_PHARMACOPHORE_FEATURES>  (1) 
4
1 2 cation
1 2 donor
6 3 5 6 9 10 13 rings
6 4 7 8 11 12 14 rings

>  <PUBCHEM_HEAVY_ATOM_COUNT>  (1) 
14

>  <PUBCHEM_ATOM_DEF_STEREO_COUNT>  (1) 
0

>  <PUBCHEM_ATOM_UDEF_STEREO_COUNT>  (1) 
0

>  <PUBCHEM_BOND_DEF_STEREO_COUNT>  (1) 
0

>  <PUBCHEM_BOND_UDEF_STEREO_COUNT>  (1) 
0

>  <PUBCHEM_ISOTOPIC_ATOM_COUNT>  (1) 
0

>  <PUBCHEM_COMPONENT_COUNT>  (1) 
1

>  <PUBCHEM_CACTVS_TAUTO_COUNT>  (1) 
1

>  <PUBCHEM_CONFORMER_ID>  (1) 
00001D7900000001

>  <PUBCHEM_MMFF94_ENERGY>  (1) 
51.0271

>  <PUBCHEM_FEATURE_SELFOVERLAP>  (1) 
20.297

>  <PUBCHEM_SHAPE_FINGERPRINT>  (1) 
10616163 171 18271527610257893327
11471102 20 18333731342627554956
11578080 2 18127944499810574873
11769659 78 18411976927739550818
12346177 29 16487245595817264709
12932764 1 18273493489766429209
13296908 3 18114739343669407965
13760787 19 18342745143115115709
14144814 61 18202003235243708217
14251717 144 18334573555575741370
14576447 43 18339639048462787686
15279307 12 18341333400123494766
15375462 189 18343023302197686985
15442244 35 18267305331019402992
15477762 27 18334013887167036842
15669948 3 17703225225884563719
18186145 218 16878225281475245537
19050596 39 18413388752156540352
19422 9 18413110550092628147
200 152 18340761624397025165
20279233 1 16443060621073914105
20281475 54 18412258445782186775
20291156 8 18266739082752910666
20442098 301 18060135444460821870
20559304 39 18341892987454808448
20645477 70 18260257534579235895
22445834 79 18413389830309336987
22485316 2 18411979161233431393
2255824 54 18335986475541746196
22646028 28 18413668002377296615
23402655 69 18408605850753507708
23463225 33 18342176639652942599
23559900 14 16988853752348602260
23598291 2 18339930298795301508
474 4 18120091946963462260
57096353 35 18268712873232802765
581208 293 18334574676699349184
77492 1 18272374178365545513

>  <PUBCHEM_SHAPE_MULTIPOLES>  (1) 
285
7.89
1.93
0.88
2.48
0.75
-0.03
1.75
0.13
-1.87
0.11
0.39
0.09
-1.16

>  <PUBCHEM_SHAPE_SELFOVERLAP>  (1) 
601.394

>  <PUBCHEM_SHAPE_VOLUME>  (1) 
159.4

>  <PUBCHEM_COORDINATE_TYPE>  (1) 
2
5
10

$$$$
