7546
     RDKit          3D

 14 15  0  0  0  0  0  0  0  0999 V2000
    2.9943    2.2857   -0.5796 O   0  0  0  0  0  0  0  0  0  0  0  0
   -0.3188   -1.1876   -0.1802 N   0  0  0  0  0  0  0  0  0  0  0  0
    1.0143   -0.7489   -0.0615 C   0  0  0  0  0  0  0  0  0  0  0  0
   -1.5574   -0.5248   -0.0540 C   0  0  0  0  0  0  0  0  0  0  0  0
    1.3488    0.5676   -0.3831 C   0  0  0  0  0  0  0  0  0  0  0  0
    2.0039   -1.6300    0.3779 C   0  0  0  0  0  0  0  0  0  0  0  0
   -2.6603   -0.9615   -0.7878 C   0  0  0  0  0  0  0  0  0  0  0  0
   -1.6792    0.5679    0.8045 C   0  0  0  0  0  0  0  0  0  0  0  0
    2.6692    1.0018   -0.2657 C   0  0  0  0  0  0  0  0  0  0  0  0
    3.3241   -1.1959    0.4953 C   0  0  0  0  0  0  0  0  0  0  0  0
    3.6568    0.1200    0.1737 C   0  0  0  0  0  0  0  0  0  0  0  0
   -3.8850   -0.3054   -0.6634 C   0  0  0  0  0  0  0  0  0  0  0  0
   -2.9039    1.2238    0.9290 C   0  0  0  0  0  0  0  0  0  0  0  0
   -4.0068    0.7871    0.1949 C   0  0  0  0  0  0  0  0  0  0  0  0
  1  9  1  0
  2  3  1  0
  2  4  1  0
  3  5  2  0
  3  6  1  0
  4  7  2  0
  4  8  1  0
  5  9  1  0
  6 10  2  0
  7 12  1  0
  8 13  2  0
  9 11  2  0
 10 11  1  0
 12 14  2  0
 13 14  1  0
M  END
>  <PUBCHEM_COMPOUND_CID>  (1) 
7546

>  <PUBCHEM_CONFORMER_RMSD>  (1) 
0.6

>  <PUBCHEM_CONFORMER_DIVERSEORDER>  (1) 
1
4
6
5
3
2

>  <PUBCHEM_MMFF94_PARTIAL_CHARGES>  (1) 
25
1 -0.53
10 -0.15
11 -0.15
12 -0.15
13 -0.15
14 -0.15
15 0.4
16 0.15
17 0.15
18 0.15
19 0.15
2 -0.6
20 0.15
21 0.15
22 0.15
23 0.15
24 0.15
25 0.45
3 0.1
4 0.1
5 -0.15
6 -0.15
7 -0.15
8 -0.15
9 0.08

>  <PUBCHEM_EFFECTIVE_ROTOR_COUNT>  (1) 
2

>  <PUBCHEM_PHARMACOPHORE_FEATURES>  (1) 
5
1 1 donor
1 2 cation
1 2 donor
6 3 5 6 9 10 11 rings
6 4 7 8 12 13 14 rings

>  <PUBCHEM_HEAVY_ATOM_COUNT>  (1) 
14

>  <PUBCHEM_ATOM_DEF_STEREO_COUNT>  (1) 
0

>  <PUBCHEM_ATOM_UDEF_STEREO_COUNT>  (1) 
0

>  <PUBCHEM_BOND_DEF_STEREO_COUNT>  (1) 
0

>  <PUBCHEM_BOND_UDEF_STEREO_COUNT>  (1) 
0

>  <PUBCHEM_ISOTOPIC_ATOM_COUNT>  (1) 
0

>  <PUBCHEM_COMPONENT_COUNT>  (1) 
1

>  <PUBCHEM_CACTVS_TAUTO_COUNT>  (1) 
9

>  <PUBCHEM_CONFORMER_ID>  (1) 
00001D7A00000001

>  <PUBCHEM_MMFF94_ENERGY>  (1) 
52.3404

>  <PUBCHEM_FEATURE_SELFOVERLAP>  (1) 
25.371

>  <PUBCHEM_SHAPE_FINGERPRINT>  (1) 
10980938 120 18335419058679606790
11471102 20 18261390036072085718
12162725 195 18341894082365520259
12251169 10 18409166576013829962
12932764 1 17095235908661211123
14144814 61 18410855438690417579
14897335 6 18411416245565953862
15342168 16 17968668244835888293
15442244 35 18196091036725198938
15653759 3 16009032769690751509
15669948 3 17846210103143522847
15775835 57 18413394241135430321
17802600 8 18412255121293000345
18186145 218 18335420140658210431
19049666 15 16372115603896364567
19050596 39 18342737407952862227
19107657 47 18040711446374843393
200 152 18342447149994910543
20233049 118 17703785899526371786
20279233 1 16443063893759956835
20645477 70 18187920638575631255
21639500 275 18335409218609065988
2255824 54 18334296448855285242
22854114 111 18408042913800701384
23048698 100 18335137587749969603
23402539 116 17560790018229169981
23402655 69 18412543180454445965
23463225 33 18412262800667820466
23557571 272 16487254365655082179
23559900 14 17275103878125832646
474 4 18188208822628530580
537710 114 18202002131711575929
57096353 35 18200588215434289703
74978 22 18408327695955263242
77492 1 18343861113004854815
9971528 1 18341046320931718434
9981440 41 17691113156344160144

>  <PUBCHEM_SHAPE_MULTIPOLES>  (1) 
277.26
7.79
1.68
0.86
1.84
0.39
-0.04
1.22
0.05
-1.06
0.09
0.29
0.07
-1.12

>  <PUBCHEM_SHAPE_SELFOVERLAP>  (1) 
595.91

>  <PUBCHEM_SHAPE_VOLUME>  (1) 
152.2

>  <PUBCHEM_COORDINATE_TYPE>  (1) 
2
5
10

$$$$
