7552
     RDKit          3D

 18 19  0  0  0  0  0  0  0  0999 V2000
    2.1128    2.4624   -0.3863 O   0  0  0  0  0  0  0  0  0  0  0  0
    2.1324   -2.2980    0.1391 O   0  0  0  0  0  0  0  0  0  0  0  0
    3.4361    0.1374    0.3335 O   0  0  0  0  0  0  0  0  0  0  0  0
   -3.2663   -1.0638    0.3046 N   0  0  0  0  0  0  0  0  0  0  0  0
   -3.3387    1.1884   -0.0144 N   0  0  0  0  0  0  0  0  0  0  0  0
   -1.8891   -0.0894   -1.5243 C   0  0  0  0  0  0  0  0  0  0  0  0
   -2.8590    0.0314   -0.3949 C   0  0  0  0  0  0  0  0  0  0  0  0
   -0.4723   -0.0286   -1.0297 C   0  0  0  0  0  0  0  0  0  0  0  0
   -4.1586   -0.6729    1.3535 C   0  0  0  0  0  0  0  0  0  0  0  0
   -4.2473    0.8432    1.1223 C   0  0  0  0  0  0  0  0  0  0  0  0
    0.1801   -1.2016   -0.6707 C   0  0  0  0  0  0  0  0  0  0  0  0
    0.1708    1.1996   -0.9364 C   0  0  0  0  0  0  0  0  0  0  0  0
    1.4867    1.2558   -0.4769 C   0  0  0  0  0  0  0  0  0  0  0  0
    1.4959   -1.1456   -0.2110 C   0  0  0  0  0  0  0  0  0  0  0  0
    2.1494    0.0831   -0.1142 C   0  0  0  0  0  0  0  0  0  0  0  0
    1.9883    3.1660    0.8479 C   0  0  0  0  0  0  0  0  0  0  0  0
    1.3937   -3.5112    0.0104 C   0  0  0  0  0  0  0  0  0  0  0  0
    3.6851   -0.3561    1.6476 C   0  0  0  0  0  0  0  0  0  0  0  0
  1 13  1  0
  1 16  1  0
  2 14  1  0
  2 17  1  0
  3 15  1  0
  3 18  1  0
  4  7  1  0
  4  9  1  0
  5  7  2  0
  5 10  1  0
  6  7  1  0
  6  8  1  0
  8 11  2  0
  8 12  1  0
  9 10  1  0
 11 14  1  0
 12 13  2  0
 13 15  1  0
 14 15  2  0
M  END
>  <PUBCHEM_COMPOUND_CID>  (1) 
7552

>  <PUBCHEM_CONFORMER_RMSD>  (1) 
0.8

>  <PUBCHEM_CONFORMER_DIVERSEORDER>  (1) 
1
4
3
6
7
5
2

>  <PUBCHEM_MMFF94_PARTIAL_CHARGES>  (1) 
21
1 -0.36
10 0.25
11 -0.15
12 -0.15
13 0.08
14 0.08
15 0.08
16 0.28
17 0.28
18 0.28
2 -0.36
25 0.4
26 0.15
27 0.15
3 -0.36
4 -0.82
5 -0.7
6 0.2
7 0.44
8 -0.14
9 0.37

>  <PUBCHEM_EFFECTIVE_ROTOR_COUNT>  (1) 
5.6

>  <PUBCHEM_PHARMACOPHORE_FEATURES>  (1) 
7
1 1 acceptor
1 2 acceptor
1 3 acceptor
1 4 donor
3 4 5 7 cation
5 4 5 7 9 10 rings
6 8 11 12 13 14 15 rings

>  <PUBCHEM_HEAVY_ATOM_COUNT>  (1) 
18

>  <PUBCHEM_ATOM_DEF_STEREO_COUNT>  (1) 
0

>  <PUBCHEM_ATOM_UDEF_STEREO_COUNT>  (1) 
0

>  <PUBCHEM_BOND_DEF_STEREO_COUNT>  (1) 
0

>  <PUBCHEM_BOND_UDEF_STEREO_COUNT>  (1) 
0

>  <PUBCHEM_ISOTOPIC_ATOM_COUNT>  (1) 
0

>  <PUBCHEM_COMPONENT_COUNT>  (1) 
1

>  <PUBCHEM_CACTVS_TAUTO_COUNT>  (1) 
1

>  <PUBCHEM_CONFORMER_ID>  (1) 
00001D8000000001

>  <PUBCHEM_MMFF94_ENERGY>  (1) 
80.1354

>  <PUBCHEM_FEATURE_SELFOVERLAP>  (1) 
35.529

>  <PUBCHEM_SHAPE_FINGERPRINT>  (1) 
10366900 7 18261967322663140833
10498660 4 14836135308324823489
10871710 139 11516872525889932867
11471102 22 18334581239261522071
11640471 11 17489585666979337363
12251169 10 18411140229819620303
12363563 72 15936413390131405069
12633257 1 18261114079991187931
12644460 14 18041552659229100936
13140716 1 18265888241004157090
13533116 47 18336838524518805147
14178342 30 18341883113030186927
14289901 80 18341900710043552651
14790565 3 18410300241855228812
14866123 147 16319780813583968899
15209294 21 17703209776860845578
15422964 175 18118682115257862742
16945 1 18338500993972291654
19049666 15 17970340413259140349
201361 129 18342465871425115701
20510252 161 16463877988524748092
20559304 39 18339933635921905477
20645477 70 18187350052555031831
20739085 24 18333735736511591356
21041028 32 18052536573946854982
21061003 4 18336250254978572598
21524375 3 17985828365596652797
21665062 11 18271258105497110497
22854114 111 18342180011418846469
2334 1 17903903797529734846
23402539 116 7853305288677744210
2748010 2 17971445581364438588
2838139 119 14764049225737238130
458136 41 18262535795606953540
5281201 14 10591774151668918609
568465 68 18335415772760639202
7097593 13 18340493249086527839
81228 2 17113236855575487966

>  <PUBCHEM_SHAPE_MULTIPOLES>  (1) 
342.86
7.03
2.96
1.31
6.16
0.43
0.18
-0.56
3.8
-2.98
0.38
0.34
-0.1
0.02

>  <PUBCHEM_SHAPE_SELFOVERLAP>  (1) 
717.231

>  <PUBCHEM_SHAPE_VOLUME>  (1) 
197.4

>  <PUBCHEM_COORDINATE_TYPE>  (1) 
2
5
10

$$$$
