7560
     RDKit          3D

 12 12  0  0  0  0  0  0  0  0999 V2000
   -1.3909   -1.6079   -0.0063 O   0  0  0  0  0  0  0  0  0  0  0  0
   -2.8434    0.1945    0.0023 N   0  0  0  0  0  0  0  0  0  0  0  0
   -0.5134    0.5467   -0.0020 N   0  0  0  0  0  0  0  0  0  0  0  0
    0.8799    0.2881   -0.0014 C   0  0  0  0  0  0  0  0  0  0  0  0
   -1.5536   -0.3859    0.0053 C   0  0  0  0  0  0  0  0  0  0  0  0
    1.7645    1.3527   -0.0095 C   0  0  0  0  0  0  0  0  0  0  0  0
    1.3241   -1.0228    0.0081 C   0  0  0  0  0  0  0  0  0  0  0  0
   -4.0565   -0.6129   -0.0146 C   0  0  0  0  0  0  0  0  0  0  0  0
   -3.0440    1.6421    0.0161 C   0  0  0  0  0  0  0  0  0  0  0  0
    3.1360    1.0985   -0.0084 C   0  0  0  0  0  0  0  0  0  0  0  0
    2.6956   -1.2769    0.0093 C   0  0  0  0  0  0  0  0  0  0  0  0
    3.6016   -0.2162    0.0010 C   0  0  0  0  0  0  0  0  0  0  0  0
  1  5  2  0
  2  5  1  0
  2  8  1  0
  2  9  1  0
  3  4  1  0
  3  5  1  0
  4  6  2  0
  4  7  1  0
  6 10  1  0
  7 11  2  0
 10 12  2  0
 11 12  1  0
M  END
>  <PUBCHEM_COMPOUND_CID>  (1) 
7560

>  <PUBCHEM_CONFORMER_RMSD>  (1) 
0.6

>  <PUBCHEM_CONFORMER_DIVERSEORDER>  (1) 
1
4
5
2
3

>  <PUBCHEM_MMFF94_PARTIAL_CHARGES>  (1) 
18
1 -0.57
10 -0.15
11 -0.15
12 -0.15
13 0.37
14 0.15
15 0.15
2 -0.66
22 0.15
23 0.15
24 0.15
3 -0.55
4 0.12
5 0.69
6 -0.15
7 -0.15
8 0.3
9 0.3

>  <PUBCHEM_EFFECTIVE_ROTOR_COUNT>  (1) 
3

>  <PUBCHEM_PHARMACOPHORE_FEATURES>  (1) 
3
1 1 acceptor
1 3 donor
6 4 6 7 10 11 12 rings

>  <PUBCHEM_HEAVY_ATOM_COUNT>  (1) 
12

>  <PUBCHEM_ATOM_DEF_STEREO_COUNT>  (1) 
0

>  <PUBCHEM_ATOM_UDEF_STEREO_COUNT>  (1) 
0

>  <PUBCHEM_BOND_DEF_STEREO_COUNT>  (1) 
0

>  <PUBCHEM_BOND_UDEF_STEREO_COUNT>  (1) 
0

>  <PUBCHEM_ISOTOPIC_ATOM_COUNT>  (1) 
0

>  <PUBCHEM_COMPONENT_COUNT>  (1) 
1

>  <PUBCHEM_CACTVS_TAUTO_COUNT>  (1) 
2

>  <PUBCHEM_CONFORMER_ID>  (1) 
00001D8800000001

>  <PUBCHEM_MMFF94_ENERGY>  (1) 
36.9961

>  <PUBCHEM_FEATURE_SELFOVERLAP>  (1) 
15.223

>  <PUBCHEM_SHAPE_FINGERPRINT>  (1) 
10608611 8 18410570699533553457
11062470 55 17846498131881344834
11471102 20 18410007741248238292
12162725 195 18411419509767440109
12932764 1 17489579091268421065
13380535 76 18410292535997779002
14144814 61 18410856542533864505
14325111 11 18410856546960765409
14415576 193 18408890654735892332
15442244 35 18195246611699939560
15775835 57 18271528696799449844
18186145 218 18339082579625383533
200 152 18202272620414845717
20201158 50 18410576175785524546
20645477 70 18411695448737431135
20871998 22 18054509106756138246
23402539 116 18271798039100230533
23402655 69 18341325626506839789
3248919 1 17313112968194371409
5104073 3 18410855442953665793
69090 78 18342172293499726735
93112 12 18410855477318613101

>  <PUBCHEM_SHAPE_MULTIPOLES>  (1) 
231.12
6.95
1.59
0.59
3.07
0.12
0
0.25
0.01
0.04
0
-0.04
0.01
-0.02

>  <PUBCHEM_SHAPE_SELFOVERLAP>  (1) 
469.731

>  <PUBCHEM_SHAPE_VOLUME>  (1) 
135.1

>  <PUBCHEM_COORDINATE_TYPE>  (1) 
2
5
10

$$$$
