7566
     RDKit          3D

 17 18  0  0  0  0  0  0  0  0999 V2000
   -0.8873    2.2570    0.2191 S   0  0  0  0  0  0  0  0  0  0  0  0
    4.3794   -1.8181    0.8655 O   0  0  0  0  0  0  0  0  0  0  0  0
    5.0079   -0.6972   -0.9142 O   0  0  0  0  0  0  0  0  0  0  0  0
    4.1795   -0.9337   -0.0019 N   0  0  0  0  0  0  0  0  0  0  0  0
   -5.0158   -2.0367   -0.3360 N   0  0  0  0  0  0  0  0  0  0  0  0
    0.6235    1.3053    0.1526 C   0  0  0  0  0  0  0  0  0  0  0  0
   -2.1142    0.9744    0.0563 C   0  0  0  0  0  0  0  0  0  0  0  0
    0.8634    0.3192    1.1063 C   0  0  0  0  0  0  0  0  0  0  0  0
    1.5552    1.5535   -0.8522 C   0  0  0  0  0  0  0  0  0  0  0  0
    2.9787   -0.1777    0.0502 C   0  0  0  0  0  0  0  0  0  0  0  0
   -2.1330    0.1679   -1.0817 C   0  0  0  0  0  0  0  0  0  0  0  0
   -3.0584    0.7800    1.0646 C   0  0  0  0  0  0  0  0  0  0  0  0
    2.0431   -0.4234    1.0550 C   0  0  0  0  0  0  0  0  0  0  0  0
    2.7348    0.8107   -0.9034 C   0  0  0  0  0  0  0  0  0  0  0  0
   -4.0398   -1.0274   -0.2033 C   0  0  0  0  0  0  0  0  0  0  0  0
   -3.0958   -0.8329   -1.2115 C   0  0  0  0  0  0  0  0  0  0  0  0
   -4.0211   -0.2209    0.9347 C   0  0  0  0  0  0  0  0  0  0  0  0
  1  6  1  0
  1  7  1  0
  2  4  1  0
  3  4  2  0
  4 10  1  0
  5 15  1  0
  6  8  2  0
  6  9  1  0
  7 11  2  0
  7 12  1  0
  8 13  1  0
  9 14  2  0
 10 13  2  0
 10 14  1  0
 11 16  1  0
 12 17  2  0
 15 16  2  0
 15 17  1  0
M  CHG  2   2  -1   4   1
M  END
>  <PUBCHEM_COMPOUND_CID>  (1) 
7566

>  <PUBCHEM_CONFORMER_RMSD>  (1) 
0.6

>  <PUBCHEM_CONFORMER_DIVERSEORDER>  (1) 
1
2
4
3

>  <PUBCHEM_MMFF94_PARTIAL_CHARGES>  (1) 
27
1 -0.2
10 0.13
11 -0.15
12 -0.15
13 -0.15
14 -0.15
15 0.1
16 -0.15
17 -0.15
18 0.15
19 0.15
2 -0.52
20 0.15
21 0.15
22 0.15
23 0.15
24 0.15
25 0.15
26 0.4
27 0.4
3 -0.52
4 0.91
5 -0.9
6 0.1
7 0.1
8 -0.15
9 -0.15

>  <PUBCHEM_EFFECTIVE_ROTOR_COUNT>  (1) 
3

>  <PUBCHEM_PHARMACOPHORE_FEATURES>  (1) 
7
1 2 acceptor
1 2 anion
1 3 acceptor
1 5 cation
1 5 donor
6 6 8 9 10 13 14 rings
6 7 11 12 15 16 17 rings

>  <PUBCHEM_HEAVY_ATOM_COUNT>  (1) 
17

>  <PUBCHEM_ATOM_DEF_STEREO_COUNT>  (1) 
0

>  <PUBCHEM_ATOM_UDEF_STEREO_COUNT>  (1) 
0

>  <PUBCHEM_BOND_DEF_STEREO_COUNT>  (1) 
0

>  <PUBCHEM_BOND_UDEF_STEREO_COUNT>  (1) 
0

>  <PUBCHEM_ISOTOPIC_ATOM_COUNT>  (1) 
0

>  <PUBCHEM_COMPONENT_COUNT>  (1) 
1

>  <PUBCHEM_CACTVS_TAUTO_COUNT>  (1) 
1

>  <PUBCHEM_CONFORMER_ID>  (1) 
00001D8E00000001

>  <PUBCHEM_MMFF94_ENERGY>  (1) 
58.6161

>  <PUBCHEM_FEATURE_SELFOVERLAP>  (1) 
35.602

>  <PUBCHEM_SHAPE_FINGERPRINT>  (1) 
10465860 228 10663825178464857064
10498660 4 12612748017093382047
11046707 91 18342737399278602881
11578080 2 18339342111499284328
11806522 49 18334013891610061024
12553582 1 18408035204497890201
12633257 1 15482668035081581759
12670546 177 16805617979237406470
12892183 10 15195299603036740717
13675066 3 15195289702915746296
14123255 52 9151177566709891453
14123260 362 8070023385039558549
1420 369 18341894103740324895
14576447 43 18260831497160847082
15188451 53 16630237126312855335
15209294 21 10231745670328503456
15239191 94 18410855473224092793
17804303 29 17703793634799596089
17834072 32 8502370053016101839
1813 80 18409459067692600652
18186145 218 16515688848619727305
18915474 69 18335422408458769991
19049666 15 15265685883608540049
193927 3 18411427214775375366
19422 9 18411989087045524089
19784866 170 13901907812996407824
19784866 240 18411138056692814559
200 152 18040719160162630297
20112054 13 11455894671721885929
20281475 54 18411983589471535001
20291156 8 18410290315620772421
20361792 2 18339634637906128901
20388580 30 18261110811173156164
20645477 70 18041834129519941093
20671657 53 18113618975823166356
20871999 31 15936404538140550261
21634736 98 18262238931920598574
21713013 43 17386000724008804847
22646028 28 18411699893801215693
23402539 116 18187366472383679104
23503958 8 18131635577882745995
235170 7 15936411113229591202
23596394 208 15936404520628391346
270888 7 8718836392097760159
27216 239 10951759816127003165
2838139 119 12108375688647028054
2871803 45 17603861230426906609
312423 11 18341060699833716749
3268164 11 13045951239240272209
328317 168 7997974561662485155
3286 77 18060134383904476185
3472631 163 11314300651377637139
351380 3 18411985753971547966
4028521 119 12685090384658559079
4259306 186 18113336409861348291
465052 167 18197787802869897311
5924683 9 14836106793931606285
76465 3 18410570686627123824
7970288 3 18410289216030776955

>  <PUBCHEM_SHAPE_MULTIPOLES>  (1) 
332
9.84
1.89
1.21
1.65
0.21
0
-6.93
-0.51
-0.31
-0.02
-0.09
-0.03
-0.97

>  <PUBCHEM_SHAPE_SELFOVERLAP>  (1) 
699.29

>  <PUBCHEM_SHAPE_VOLUME>  (1) 
188.1

>  <PUBCHEM_COORDINATE_TYPE>  (1) 
2
5
10

$$$$
