7588
     RDKit          3D

 22 23  0  0  0  0  0  0  0  0999 V2000
   -5.8302   -1.0453   -0.4377 O   0  0  0  0  0  0  0  0  0  0  0  0
    5.9479   -1.0314   -0.2593 O   0  0  0  0  0  0  0  0  0  0  0  0
   -1.1595    1.9276    0.0846 N   0  0  0  0  0  0  0  0  0  0  0  0
    0.5563    0.2772   -0.1439 N   0  0  0  0  0  0  0  0  0  0  0  0
   -2.3460    1.1730   -0.0480 C   0  0  0  0  0  0  0  0  0  0  0  0
    0.1630    1.5126    0.0273 C   0  0  0  0  0  0  0  0  0  0  0  0
   -4.6870   -0.3181   -0.3090 C   0  0  0  0  0  0  0  0  0  0  0  0
   -3.5029    1.5727    0.6185 C   0  0  0  0  0  0  0  0  0  0  0  0
   -2.3569    0.0293   -0.8449 C   0  0  0  0  0  0  0  0  0  0  0  0
    1.9146   -0.0540   -0.1727 C   0  0  0  0  0  0  0  0  0  0  0  0
   -4.6742    0.8267    0.4880 C   0  0  0  0  0  0  0  0  0  0  0  0
   -3.5283   -0.7168   -0.9754 C   0  0  0  0  0  0  0  0  0  0  0  0
    4.6254   -0.7109   -0.2309 C   0  0  0  0  0  0  0  0  0  0  0  0
    2.5762   -0.3900    1.0082 C   0  0  0  0  0  0  0  0  0  0  0  0
    2.6083   -0.0464   -1.3829 C   0  0  0  0  0  0  0  0  0  0  0  0
    3.9316   -0.7182    0.9792 C   0  0  0  0  0  0  0  0  0  0  0  0
    3.9636   -0.3748   -1.4121 C   0  0  0  0  0  0  0  0  0  0  0  0
    1.1733    2.6421    0.2177 C   0  0  0  0  0  0  0  0  0  0  0  0
   -6.7310   -1.0406    0.6689 C   0  0  0  0  0  0  0  0  0  0  0  0
    6.7142   -0.7302    0.9058 C   0  0  0  0  0  0  0  0  0  0  0  0
   -7.4850   -2.3253    0.7023 C   0  0  0  0  0  0  0  0  0  0  0  0
    8.1267   -0.4591    0.5162 C   0  0  0  0  0  0  0  0  0  0  0  0
  1  7  1  0
  1 19  1  0
  2 13  1  0
  2 20  1  0
  3  5  1  0
  3  6  1  0
  4  6  2  0
  4 10  1  0
  5  8  2  0
  5  9  1  0
  6 18  1  0
  7 11  2  0
  7 12  1  0
  8 11  1  0
  9 12  2  0
 10 14  2  0
 10 15  1  0
 13 16  2  0
 13 17  1  0
 14 16  1  0
 15 17  2  0
 19 21  1  0
 20 22  1  0
M  END
>  <PUBCHEM_COMPOUND_CID>  (1) 
7588

>  <PUBCHEM_CONFORMER_RMSD>  (1) 
0.8

>  <PUBCHEM_CONFORMER_DIVERSEORDER>  (1) 
1
24
28
22
25
35
7
29
19
3
18
30
17
33
5
11
36
31
9
6
8
15
4
21
32
26
34
20
12
16
13
27
2
23
10
14

>  <PUBCHEM_MMFF94_PARTIAL_CHARGES>  (1) 
29
1 -0.36
10 0.18
11 -0.15
12 -0.15
13 0.08
14 -0.15
15 -0.15
16 -0.15
17 -0.15
18 0.06
19 0.28
2 -0.36
20 0.28
23 0.4
24 0.15
25 0.15
26 0.15
27 0.15
28 0.15
29 0.15
3 -0.55
30 0.15
31 0.15
4 -0.63
5 0.1
6 0.44
7 0.08
8 -0.15
9 -0.15

>  <PUBCHEM_EFFECTIVE_ROTOR_COUNT>  (1) 
7

>  <PUBCHEM_PHARMACOPHORE_FEATURES>  (1) 
6
1 1 acceptor
1 2 acceptor
1 3 donor
3 3 4 6 cation
6 10 13 14 15 16 17 rings
6 5 7 8 9 11 12 rings

>  <PUBCHEM_HEAVY_ATOM_COUNT>  (1) 
22

>  <PUBCHEM_ATOM_DEF_STEREO_COUNT>  (1) 
0

>  <PUBCHEM_ATOM_UDEF_STEREO_COUNT>  (1) 
0

>  <PUBCHEM_BOND_DEF_STEREO_COUNT>  (1) 
0

>  <PUBCHEM_BOND_UDEF_STEREO_COUNT>  (1) 
0

>  <PUBCHEM_ISOTOPIC_ATOM_COUNT>  (1) 
0

>  <PUBCHEM_COMPONENT_COUNT>  (1) 
1

>  <PUBCHEM_CACTVS_TAUTO_COUNT>  (1) 
1

>  <PUBCHEM_CONFORMER_ID>  (1) 
00001DA400000001

>  <PUBCHEM_MMFF94_ENERGY>  (1) 
83.3407

>  <PUBCHEM_FEATURE_SELFOVERLAP>  (1) 
30.446

>  <PUBCHEM_SHAPE_FINGERPRINT>  (1) 
106641 1 18202279226058709666
11315181 36 18341892974559701473
11646440 116 17917717915539808139
12166972 35 17749110002053617060
12236239 1 18041279872907348404
12516196 113 18341894082766537952
13073987 5 17916871205644869762
13288520 33 18409446973534037045
13668630 136 17894912910292264910
13685833 64 18411702105941520763
14123256 34 18410298025488014843
14251764 18 17775284979979798358
14341114 176 16056883507331597352
15183329 4 11530478909706254356
17780758 139 17846499210635749697
1813 80 18336273365955538796
18335252 98 18202003210455307326
190975 80 18342174505238708992
200 152 17168428160482070252
20028762 73 18130507543789400271
21033648 29 16199573681109059689
21054139 6 17967533454468088002
21095123 293 13398629481012528426
21150785 3 16950282910437440034
21267235 1 18411984667159822343
21298829 104 9222962478144910787
21792934 111 18060698408412416873
22122407 14 13254514318569526971
221357 26 14706924042638261847
22224240 67 16630517440962463790
23402539 116 16950849089958647380
23522609 53 18047227187316931757
23559900 14 16733557142483683677
23569943 247 17684368353020609522
3004659 81 17603581950109905947
312425 54 16128662959667647943
3383291 50 18410577318643231059
34797466 226 17775010111728769964
351380 3 18408885144424668143
4325135 7 18342174471559751356
465052 167 18339931506156034647
5104073 3 18202570609646844217
559249 180 18410292485328180813
57724786 102 13901612073932446635
59682541 35 18343577474124113848
59682541 52 13768191788389050033
8863177 126 18117004493117526123
9962374 69 18058441170747842823
999808 66 18259993686649572379

>  <PUBCHEM_SHAPE_MULTIPOLES>  (1) 
431.05
20.36
1.91
1.11
2.98
0.77
-0.17
-14.15
4.7
-2.32
0.39
0.59
-0.19
0.02

>  <PUBCHEM_SHAPE_SELFOVERLAP>  (1) 
898.281

>  <PUBCHEM_SHAPE_VOLUME>  (1) 
244.3

>  <PUBCHEM_COORDINATE_TYPE>  (1) 
2
5
10

$$$$
