7600
     RDKit          3D

 15 15  0  0  0  0  0  0  0  0999 V2000
    1.2993   -0.0121   -0.8044 O   0  0  0  0  0  0  0  0  0  0  0  0
   -0.0356   -0.0062    1.0768 O   0  0  0  0  0  0  0  0  0  0  0  0
    5.0227    0.0250   -0.1160 C   0  0  0  0  0  0  0  0  0  0  0  0
    3.6924    0.0184   -0.8861 C   0  0  0  0  0  0  0  0  0  0  0  0
    2.4624    0.0134    0.0136 C   0  0  0  0  0  0  0  0  0  0  0  0
    5.0903    1.2536    0.7942 C   0  0  0  0  0  0  0  0  0  0  0  0
    5.2217   -1.2441    0.7138 C   0  0  0  0  0  0  0  0  0  0  0  0
   -1.0241   -0.0486   -1.1462 C   0  0  0  0  0  0  0  0  0  0  0  0
    0.1009   -0.0197   -0.1390 C   0  0  0  0  0  0  0  0  0  0  0  0
   -2.3878   -0.0214   -0.5056 C   0  0  0  0  0  0  0  0  0  0  0  0
   -3.0099   -1.2164   -0.1749 C   0  0  0  0  0  0  0  0  0  0  0  0
   -3.0000    1.1983   -0.2560 C   0  0  0  0  0  0  0  0  0  0  0  0
   -4.2720   -1.1915    0.4182 C   0  0  0  0  0  0  0  0  0  0  0  0
   -4.2623    1.2231    0.3373 C   0  0  0  0  0  0  0  0  0  0  0  0
   -4.8982    0.0282    0.6744 C   0  0  0  0  0  0  0  0  0  0  0  0
  1  5  1  0
  1  9  1  0
  2  9  2  0
  3  4  1  0
  3  6  1  0
  3  7  1  0
  4  5  1  0
  8  9  1  0
  8 10  1  0
 10 11  2  0
 10 12  1  0
 11 13  1  0
 12 14  2  0
 13 15  2  0
 14 15  1  0
M  END
>  <PUBCHEM_COMPOUND_CID>  (1) 
7600

>  <PUBCHEM_CONFORMER_RMSD>  (1) 
0.8

>  <PUBCHEM_CONFORMER_DIVERSEORDER>  (1) 
1
15
22
35
46
27
64
32
25
6
38
42
34
56
37
7
52
31
62
55
61
13
10
21
43
33
2
17
60
65
30
5
23
50
14
20
24
48
63
18
54
39
59
11
47
12
9
3
29
53
26
45
44
8
58
19
4
57
16
41
40
51
49
28
36

>  <PUBCHEM_MMFF94_PARTIAL_CHARGES>  (1) 
16
1 -0.43
10 -0.14
11 -0.15
12 -0.15
13 -0.15
14 -0.15
15 -0.15
2 -0.57
29 0.15
30 0.15
31 0.15
32 0.15
33 0.15
5 0.28
8 0.2
9 0.66

>  <PUBCHEM_EFFECTIVE_ROTOR_COUNT>  (1) 
6

>  <PUBCHEM_PHARMACOPHORE_FEATURES>  (1) 
3
1 2 acceptor
3 3 6 7 hydrophobe
6 10 11 12 13 14 15 rings

>  <PUBCHEM_HEAVY_ATOM_COUNT>  (1) 
15

>  <PUBCHEM_ATOM_DEF_STEREO_COUNT>  (1) 
0

>  <PUBCHEM_ATOM_UDEF_STEREO_COUNT>  (1) 
0

>  <PUBCHEM_BOND_DEF_STEREO_COUNT>  (1) 
0

>  <PUBCHEM_BOND_UDEF_STEREO_COUNT>  (1) 
0

>  <PUBCHEM_ISOTOPIC_ATOM_COUNT>  (1) 
0

>  <PUBCHEM_COMPONENT_COUNT>  (1) 
1

>  <PUBCHEM_CACTVS_TAUTO_COUNT>  (1) 
1

>  <PUBCHEM_CONFORMER_ID>  (1) 
00001DB000000001

>  <PUBCHEM_MMFF94_ENERGY>  (1) 
25.7693

>  <PUBCHEM_FEATURE_SELFOVERLAP>  (1) 
15.223

>  <PUBCHEM_SHAPE_FINGERPRINT>  (1) 
10014705 185 15338827677298667189
10912923 1 17822015328257114852
11287383 113 18343584070661123648
12236239 1 17676211281989373821
12596602 18 18410573998374009312
13167823 11 18259701190401540978
13533116 47 18410010993140355546
13675066 3 17988927777385317790
13690532 89 14634867561244470998
13862211 1 15574710317942568024
14123238 8 18410293627077234220
1420 363 14996286911603243336
15375358 24 17203895158282168494
17834076 25 15339121242967012180
17844677 252 18411986858015591296
200 152 14562527392723537861
204376 136 16702304563518825566
20645477 56 17847059986576096316
20645477 70 16200161937167960468
21150785 3 12324254862237349298
220451 1 18260836990297567542
22646028 1 15791726404263782876
23402539 116 17603583028109754775
23536379 177 18409166589320549850
23559900 14 16487262071580688214
23590187 198 17821447945702401522
42 15 18333732403494961702
42788 4 18131071536817551724
49783359 22 18260546731727731635
5104073 3 18410855460492126954
5374978 207 17775282755904086008
542803 24 17346600781035777488
573450 72 18334571330518866570
5924683 9 18130500959250860639

>  <PUBCHEM_SHAPE_MULTIPOLES>  (1) 
296.95
13.39
1.22
1
9.68
0.01
-0.04
0.01
3.25
-0.35
0.2
0.25
0.01
0.06

>  <PUBCHEM_SHAPE_SELFOVERLAP>  (1) 
594.475

>  <PUBCHEM_SHAPE_VOLUME>  (1) 
175.4

>  <PUBCHEM_COORDINATE_TYPE>  (1) 
2
5
10

$$$$
