7608
     RDKit          3D

 10 10  0  0  1  0  0  0  0  0999 V2000
   -2.0420    0.6247    0.7352 N   0  0  0  0  0  0  0  0  0  0  0  0
    0.8259   -0.1889    0.2981 C   0  0  0  0  0  0  0  0  0  0  0  0
    2.0839   -0.9862    0.6282 C   0  0  0  0  0  0  0  0  0  0  0  0
    1.2699    0.6355   -0.9060 C   0  0  0  0  0  0  0  0  0  0  0  0
   -0.3807   -1.0656    0.0115 C   0  0  0  0  0  0  0  0  0  0  0  0
    3.2200    0.0112    0.4228 C   0  0  0  0  0  0  0  0  0  0  0  0
    2.6917    1.0617   -0.5556 C   0  0  0  0  0  0  0  0  0  0  0  0
   -1.6506   -0.2752   -0.3496 C   0  0  0  0  0  0  0  0  0  0  0  0
   -2.8104   -1.2259   -0.6432 C   0  0  0  0  0  0  0  0  0  0  0  0
   -3.2077    1.4088    0.3584 C   0  0  0  0  0  0  0  0  0  0  0  0
  1  8  1  0
  1 10  1  0
  2  3  1  0
  2  4  1  0
  2  5  1  0
  3  6  1  0
  4  7  1  0
  5  8  1  0
  6  7  1  0
  8  9  1  0
M  END
>  <PUBCHEM_COMPOUND_CID>  (1) 
7608

>  <PUBCHEM_CONFORMER_RMSD>  (1) 
0.6

>  <PUBCHEM_CONFORMER_DIVERSEORDER>  (1) 
1
9
2
17
3
16
5
14
15
4
13
11
10
7
8
6
12

>  <PUBCHEM_MMFF94_PARTIAL_CHARGES>  (1) 
4
1 -0.9
10 0.27
26 0.36
8 0.27

>  <PUBCHEM_EFFECTIVE_ROTOR_COUNT>  (1) 
4

>  <PUBCHEM_PHARMACOPHORE_FEATURES>  (1) 
3
1 1 cation
1 1 donor
5 2 3 4 6 7 rings

>  <PUBCHEM_HEAVY_ATOM_COUNT>  (1) 
10

>  <PUBCHEM_ATOM_DEF_STEREO_COUNT>  (1) 
0

>  <PUBCHEM_ATOM_UDEF_STEREO_COUNT>  (1) 
1

>  <PUBCHEM_BOND_DEF_STEREO_COUNT>  (1) 
0

>  <PUBCHEM_BOND_UDEF_STEREO_COUNT>  (1) 
0

>  <PUBCHEM_ISOTOPIC_ATOM_COUNT>  (1) 
0

>  <PUBCHEM_COMPONENT_COUNT>  (1) 
1

>  <PUBCHEM_CACTVS_TAUTO_COUNT>  (1) 
1

>  <PUBCHEM_CONFORMER_ID>  (1) 
00001DB800000001

>  <PUBCHEM_MMFF94_ENERGY>  (1) 
10.8703

>  <PUBCHEM_FEATURE_SELFOVERLAP>  (1) 
15.223

>  <PUBCHEM_SHAPE_FINGERPRINT>  (1) 
10219947 1 17313097579685259086
12162725 195 18409727395631668060
12932741 1 16056878048080024043
12932764 1 18341902912733943312
14144814 61 18260263066359631722
14325111 11 18411699893706348074
14390081 3 18271806851756014640
14897335 6 18270677563568251383
15775835 57 18410579474241332073
17844478 74 16081089251189777204
20279233 1 15769772450832814598
20653085 51 18341066158594160104
20711983 171 18343587338777879533
20715346 28 15213018271256655982
23402539 116 18058998596935536551
23552423 10 18339642239544666031
29004967 10 16443061690752762226
3248919 1 18260263079234185586
5084963 1 18187352268399395007
8030462 33 18410572932889933342

>  <PUBCHEM_SHAPE_MULTIPOLES>  (1) 
200.81
5.57
1.38
0.9
0.84
0.08
0.05
1.1
-0.29
0.62
0.02
-0.03
0.05
-0.88

>  <PUBCHEM_SHAPE_SELFOVERLAP>  (1) 
382.162

>  <PUBCHEM_SHAPE_VOLUME>  (1) 
125.4

>  <PUBCHEM_COORDINATE_TYPE>  (1) 
2
5
10

$$$$
