7616
     RDKit          3D

 10  9  0  0  0  0  0  0  0  0999 V2000
    0.0114    0.0031   -0.2382 N   0  0  0  0  0  0  0  0  0  0  0  0
    1.3509   -0.3267    0.2337 C   0  0  0  0  0  0  0  0  0  0  0  0
   -0.3788    1.3406    0.2114 C   0  0  0  0  0  0  0  0  0  0  0  0
   -0.9579   -0.9911    0.2255 C   0  0  0  0  0  0  0  0  0  0  0  0
    2.3651    0.6793   -0.3047 C   0  0  0  0  0  0  0  0  0  0  0  0
   -1.7818    1.6786   -0.2864 C   0  0  0  0  0  0  0  0  0  0  0  0
   -0.5881   -2.3764   -0.2988 C   0  0  0  0  0  0  0  0  0  0  0  0
    3.7753    0.3447    0.1561 C   0  0  0  0  0  0  0  0  0  0  0  0
   -2.2032    3.0734    0.1498 C   0  0  0  0  0  0  0  0  0  0  0  0
   -1.5929   -3.4255    0.1516 C   0  0  0  0  0  0  0  0  0  0  0  0
  1  2  1  0
  1  3  1  0
  1  4  1  0
  2  5  1  0
  3  6  1  0
  4  7  1  0
  5  8  1  0
  6  9  1  0
  7 10  1  0
M  END
>  <PUBCHEM_COMPOUND_CID>  (1) 
7616

>  <PUBCHEM_CONFORMER_RMSD>  (1) 
0.6

>  <PUBCHEM_CONFORMER_DIVERSEORDER>  (1) 
1
6
7
14
13
3
8
11
10
5
9
2
12
4

>  <PUBCHEM_MMFF94_PARTIAL_CHARGES>  (1) 
4
1 -0.81
2 0.27
3 0.27
4 0.27

>  <PUBCHEM_EFFECTIVE_ROTOR_COUNT>  (1) 
6

>  <PUBCHEM_PHARMACOPHORE_FEATURES>  (1) 
4
1 1 cation
1 10 hydrophobe
1 8 hydrophobe
1 9 hydrophobe

>  <PUBCHEM_HEAVY_ATOM_COUNT>  (1) 
10

>  <PUBCHEM_ATOM_DEF_STEREO_COUNT>  (1) 
0

>  <PUBCHEM_ATOM_UDEF_STEREO_COUNT>  (1) 
0

>  <PUBCHEM_BOND_DEF_STEREO_COUNT>  (1) 
0

>  <PUBCHEM_BOND_UDEF_STEREO_COUNT>  (1) 
0

>  <PUBCHEM_ISOTOPIC_ATOM_COUNT>  (1) 
0

>  <PUBCHEM_COMPONENT_COUNT>  (1) 
1

>  <PUBCHEM_CACTVS_TAUTO_COUNT>  (1) 
1

>  <PUBCHEM_CONFORMER_ID>  (1) 
00001DC000000001

>  <PUBCHEM_MMFF94_ENERGY>  (1) 
6.5685

>  <PUBCHEM_FEATURE_SELFOVERLAP>  (1) 
20.297

>  <PUBCHEM_SHAPE_FINGERPRINT>  (1) 
1 1 17905889171589274972
19021347 4 18338798896882384923
20524608 308 18411703175467537670
20645477 70 17471005883856319381
20711985 344 18267569368386869338
21040471 1 18338796702428676080
21426921 1 18338521953892938556
21499 59 18192704545106909277
21524375 3 18116431444946814272
23526114 1 16609415287062697607
23552423 10 17620468013624714373
23552449 1 18267302221484231556
2748010 2 18193291692747151343
305870 269 17977944583910767632
7364860 26 17475231297623233005
81228 2 18338516459833000123

>  <PUBCHEM_SHAPE_MULTIPOLES>  (1) 
200.81
4.06
4
0.66
4.92
1.85
0
-1.86
-0.11
-4.9
-0.11
0
0
0

>  <PUBCHEM_SHAPE_SELFOVERLAP>  (1) 
355.569

>  <PUBCHEM_SHAPE_VOLUME>  (1) 
133.6

>  <PUBCHEM_COORDINATE_TYPE>  (1) 
2
5
10

$$$$
