7622
     RDKit          3D

 13 12  0  0  0  0  0  0  0  0999 V2000
   -0.0114   -0.0115   -0.1798 N   0  0  0  0  0  0  0  0  0  0  0  0
   -0.2942    1.3531    0.2686 C   0  0  0  0  0  0  0  0  0  0  0  0
    1.3047   -0.4400    0.2970 C   0  0  0  0  0  0  0  0  0  0  0  0
   -1.0477   -0.9281    0.2802 C   0  0  0  0  0  0  0  0  0  0  0  0
    0.7951    2.3078   -0.2169 C   0  0  0  0  0  0  0  0  0  0  0  0
    1.6290   -1.8384   -0.2258 C   0  0  0  0  0  0  0  0  0  0  0  0
   -2.4179   -0.4748   -0.2209 C   0  0  0  0  0  0  0  0  0  0  0  0
    0.5077    3.7438    0.2229 C   0  0  0  0  0  0  0  0  0  0  0  0
    3.0102   -2.2972    0.2435 C   0  0  0  0  0  0  0  0  0  0  0  0
   -3.5178   -1.4352    0.2329 C   0  0  0  0  0  0  0  0  0  0  0  0
    1.6057    4.6948   -0.2261 C   0  0  0  0  0  0  0  0  0  0  0  0
    3.3259   -3.7024   -0.2434 C   0  0  0  0  0  0  0  0  0  0  0  0
   -4.8892   -0.9719   -0.2321 C   0  0  0  0  0  0  0  0  0  0  0  0
  1  2  1  0
  1  3  1  0
  1  4  1  0
  2  5  1  0
  3  6  1  0
  4  7  1  0
  5  8  1  0
  6  9  1  0
  7 10  1  0
  8 11  1  0
  9 12  1  0
 10 13  1  0
M  END
>  <PUBCHEM_COMPOUND_CID>  (1) 
7622

>  <PUBCHEM_CONFORMER_RMSD>  (1) 
0.8

>  <PUBCHEM_CONFORMER_DIVERSEORDER>  (1) 
1
129
23
97
123
124
130
5
121
83
126
136
88
95
140
99
84
27
6
100
107
73
10
77
132
43
137
80
60
133
119
54
81
92
120
112
74
57
135
98
15
79
87
114
111
76
35
63
109
24
105
139
11
115
69
26
89
141
93
68
134
91
138
85
65
50
127
101
28
122
125
86
44
116
51
67
117
113
39
55
108
75
29
72
48
58
70
128
49
71
110
106
103
4
40
59
38
61
36
56
90
47
96
78
25
30
13
62
46
131
3
42
102
64
32
94
12
22
19
53
2
31
45
41
14
20
7
52
104
16
17
118
66
9
18
33
82
8
37
21
34

>  <PUBCHEM_MMFF94_PARTIAL_CHARGES>  (1) 
4
1 -0.81
2 0.27
3 0.27
4 0.27

>  <PUBCHEM_EFFECTIVE_ROTOR_COUNT>  (1) 
9

>  <PUBCHEM_PHARMACOPHORE_FEATURES>  (1) 
4
1 1 cation
1 11 hydrophobe
1 12 hydrophobe
1 13 hydrophobe

>  <PUBCHEM_HEAVY_ATOM_COUNT>  (1) 
13

>  <PUBCHEM_ATOM_DEF_STEREO_COUNT>  (1) 
0

>  <PUBCHEM_ATOM_UDEF_STEREO_COUNT>  (1) 
0

>  <PUBCHEM_BOND_DEF_STEREO_COUNT>  (1) 
0

>  <PUBCHEM_BOND_UDEF_STEREO_COUNT>  (1) 
0

>  <PUBCHEM_ISOTOPIC_ATOM_COUNT>  (1) 
0

>  <PUBCHEM_COMPONENT_COUNT>  (1) 
1

>  <PUBCHEM_CACTVS_TAUTO_COUNT>  (1) 
1

>  <PUBCHEM_CONFORMER_ID>  (1) 
00001DC600000001

>  <PUBCHEM_MMFF94_ENERGY>  (1) 
6.1761

>  <PUBCHEM_FEATURE_SELFOVERLAP>  (1) 
20.297

>  <PUBCHEM_SHAPE_FINGERPRINT>  (1) 
1 1 18049723215374593157
11357001 24 17832712274661783459
11833330 49 18120369848347378640
12500047 106 17186718317499024266
12532896 13 16827555117106481094
136203 1 17906452121484628570
13955234 65 18266465489246949435
14178000 15 18412824681591252945
14178000 22 17330267780539640809
15042514 8 17906459822740804875
17539 30 17907849609385283951
19021347 4 17329711436092452704
20524608 308 17547292198976071322
20645477 70 18263634229884363759
20671657 1 18267309909713159303
20671657 53 18341333305971869603
20711985 344 17904470810132191643
20871998 22 18411976927655551131
21426921 1 17906455420626777270
21499 59 17762049244200051077
21524375 3 17251727453259806361
2255824 54 18269556207462904167
23526113 38 18187366540834436323
23530152 11 17617940669819812958
23558518 356 17829619353386393034
3071541 12 18338802346068184257
3091708 16 9284973820778675496
532947 4 18124042479710093948
54173680 148 18050285860348289563
58779409 8 17114390238846448830
6025842 7 18123463041435421055
68521 5 18122908620574762934
7364860 26 18338516472960540443
77188 2 18410855417183763716
81228 2 18050568439131569601
81539 233 17975689807916673085

>  <PUBCHEM_SHAPE_MULTIPOLES>  (1) 
262.55
6.2
6.09
0.67
7.86
7.59
-0.01
-7.66
0.4
-7.84
0.4
0
-0.01
0.01

>  <PUBCHEM_SHAPE_SELFOVERLAP>  (1) 
469.359

>  <PUBCHEM_SHAPE_VOLUME>  (1) 
172.4

>  <PUBCHEM_COORDINATE_TYPE>  (1) 
2
5
10

$$$$
