7637
     RDKit          3D

 15 16  0  0  0  0  0  0  0  0999 V2000
    5.5866    0.1565    0.0256 O   0  0  0  0  0  0  0  0  0  0  0  0
    0.0495   -0.3589   -0.0160 N   0  0  0  0  0  0  0  0  0  0  0  0
   -0.8578    0.7864   -0.1067 C   0  0  0  0  0  0  0  0  0  0  0  0
   -2.2919    0.3813   -0.0455 C   0  0  0  0  0  0  0  0  0  0  0  0
    1.4182   -0.2311   -0.0055 C   0  0  0  0  0  0  0  0  0  0  0  0
   -2.9824    0.0803   -1.2196 C   0  0  0  0  0  0  0  0  0  0  0  0
   -2.9427    0.3027    1.1859 C   0  0  0  0  0  0  0  0  0  0  0  0
    2.0371    1.0367   -0.0830 C   0  0  0  0  0  0  0  0  0  0  0  0
    2.2593   -1.3633    0.0823 C   0  0  0  0  0  0  0  0  0  0  0  0
   -4.3235   -0.2988   -1.1625 C   0  0  0  0  0  0  0  0  0  0  0  0
   -4.2838   -0.0766    1.2429 C   0  0  0  0  0  0  0  0  0  0  0  0
    3.4258    1.1659   -0.0733 C   0  0  0  0  0  0  0  0  0  0  0  0
    3.6481   -1.2342    0.0922 C   0  0  0  0  0  0  0  0  0  0  0  0
    4.2316    0.0305    0.0144 C   0  0  0  0  0  0  0  0  0  0  0  0
   -4.9742   -0.3774    0.0687 C   0  0  0  0  0  0  0  0  0  0  0  0
  1 14  1  0
  2  3  1  0
  2  5  1  0
  3  4  1  0
  4  6  2  0
  4  7  1  0
  5  8  2  0
  5  9  1  0
  6 10  1  0
  7 11  2  0
  8 12  1  0
  9 13  2  0
 10 15  2  0
 11 15  1  0
 12 14  2  0
 13 14  1  0
M  END
>  <PUBCHEM_COMPOUND_CID>  (1) 
7637

>  <PUBCHEM_CONFORMER_RMSD>  (1) 
0.6

>  <PUBCHEM_CONFORMER_DIVERSEORDER>  (1) 
1
9
5
8
7
4
2
6
3

>  <PUBCHEM_MMFF94_PARTIAL_CHARGES>  (1) 
26
1 -0.53
10 -0.15
11 -0.15
12 -0.15
13 -0.15
14 0.08
15 -0.15
18 0.4
19 0.15
2 -0.87
20 0.15
21 0.15
22 0.15
23 0.15
24 0.15
25 0.15
26 0.15
27 0.15
28 0.45
3 0.51
4 -0.14
5 0.1
6 -0.15
7 -0.15
8 -0.15
9 -0.15

>  <PUBCHEM_EFFECTIVE_ROTOR_COUNT>  (1) 
3

>  <PUBCHEM_PHARMACOPHORE_FEATURES>  (1) 
5
1 1 donor
1 2 cation
1 2 donor
6 4 6 7 10 11 15 rings
6 5 8 9 12 13 14 rings

>  <PUBCHEM_HEAVY_ATOM_COUNT>  (1) 
15

>  <PUBCHEM_ATOM_DEF_STEREO_COUNT>  (1) 
0

>  <PUBCHEM_ATOM_UDEF_STEREO_COUNT>  (1) 
0

>  <PUBCHEM_BOND_DEF_STEREO_COUNT>  (1) 
0

>  <PUBCHEM_BOND_UDEF_STEREO_COUNT>  (1) 
0

>  <PUBCHEM_ISOTOPIC_ATOM_COUNT>  (1) 
0

>  <PUBCHEM_COMPONENT_COUNT>  (1) 
1

>  <PUBCHEM_CACTVS_TAUTO_COUNT>  (1) 
2

>  <PUBCHEM_CONFORMER_ID>  (1) 
00001DD500000001

>  <PUBCHEM_MMFF94_ENERGY>  (1) 
47.3725

>  <PUBCHEM_FEATURE_SELFOVERLAP>  (1) 
25.371

>  <PUBCHEM_SHAPE_FINGERPRINT>  (1) 
10680689 15 15936414437992850441
10912923 1 17775565342480975082
11287383 113 17312826004365618036
11401426 45 12901546849172300638
11471102 20 18408322190265774924
11615757 297 18272369775997738889
12107183 9 17125379930517275635
12236239 1 17847062181309516104
13167823 11 17918274246684745631
14123238 8 18272652350596684594
1420 363 18186525393064356594
14251718 22 15791737420606964236
14252887 29 18342181025310449894
14386348 63 17676209073980577251
15242439 84 17240479208646746205
15375358 24 17530683208143961715
15961568 22 15430608380131030308
17834072 33 17917990611249664676
19050596 39 17846780706580686427
19489759 90 15646768990112212957
1986462 14 16225766307319760197
200 152 18411978057621976145
20279233 1 17458347429047872107
20432913 95 18408889524974701675
20645477 56 15936401209799365461
20645477 70 18188484675466956418
21065201 7 16009025073093669353
22646028 1 18131630080081799271
23402539 116 17561361772818308949
23402655 69 18411976927692266612
23536379 177 16128661838722906862
23557571 272 16805316669827403789
23559900 14 16732977588049182090
26918003 58 18259706705054873785
300161 21 17846775187558305985
474 4 17913758677247778848
5104073 3 18263076626679572760
542803 24 17132116848682056840
573450 72 17131830937320718387
602551 16 15482376647030169894
69090 78 18261111893652705171

>  <PUBCHEM_SHAPE_MULTIPOLES>  (1) 
297.84
11.78
1.09
1.01
1.18
0.08
-0.01
0.88
-0.22
1.02
0
-1.44
0
-0.18

>  <PUBCHEM_SHAPE_SELFOVERLAP>  (1) 
633.814

>  <PUBCHEM_SHAPE_VOLUME>  (1) 
165.9

>  <PUBCHEM_COORDINATE_TYPE>  (1) 
2
5
10

$$$$
