7654
     RDKit          3D

 12 12  0  0  0  0  0  0  0  0999 V2000
    1.7454   -0.0337    0.3625 O   0  0  0  0  0  0  0  0  0  0  0  0
    3.6145    0.4230   -0.9162 O   0  0  0  0  0  0  0  0  0  0  0  0
   -0.0211    1.4979    0.9621 C   0  0  0  0  0  0  0  0  0  0  0  0
   -1.1150    0.6317    0.4348 C   0  0  0  0  0  0  0  0  0  0  0  0
    1.3027    1.3094    0.2152 C   0  0  0  0  0  0  0  0  0  0  0  0
   -1.9413    1.0967   -0.5882 C   0  0  0  0  0  0  0  0  0  0  0  0
   -1.3121   -0.6434    0.9653 C   0  0  0  0  0  0  0  0  0  0  0  0
   -2.9644    0.2867   -1.0809 C   0  0  0  0  0  0  0  0  0  0  0  0
   -2.3351   -1.4534    0.4724 C   0  0  0  0  0  0  0  0  0  0  0  0
   -3.1612   -0.9884   -0.5507 C   0  0  0  0  0  0  0  0  0  0  0  0
    2.9238   -0.3434   -0.2584 C   0  0  0  0  0  0  0  0  0  0  0  0
    3.2637   -1.7831   -0.0179 C   0  0  0  0  0  0  0  0  0  0  0  0
  1  5  1  0
  1 11  1  0
  2 11  2  0
  3  4  1  0
  3  5  1  0
  4  6  2  0
  4  7  1  0
  6  8  1  0
  7  9  2  0
  8 10  2  0
  9 10  1  0
 11 12  1  0
M  END
>  <PUBCHEM_COMPOUND_CID>  (1) 
7654

>  <PUBCHEM_CONFORMER_RMSD>  (1) 
0.6

>  <PUBCHEM_CONFORMER_DIVERSEORDER>  (1) 
1
18
9
6
8
17
27
15
30
23
13
19
22
24
14
26
3
10
20
11
29
7
12
21
2
25
16
5
28
4

>  <PUBCHEM_MMFF94_PARTIAL_CHARGES>  (1) 
17
1 -0.43
10 -0.15
11 0.66
12 0.06
17 0.15
18 0.15
19 0.15
2 -0.57
20 0.15
21 0.15
3 0.14
4 -0.14
5 0.28
6 -0.15
7 -0.15
8 -0.15
9 -0.15

>  <PUBCHEM_EFFECTIVE_ROTOR_COUNT>  (1) 
4

>  <PUBCHEM_PHARMACOPHORE_FEATURES>  (1) 
2
1 2 acceptor
6 4 6 7 8 9 10 rings

>  <PUBCHEM_HEAVY_ATOM_COUNT>  (1) 
12

>  <PUBCHEM_ATOM_DEF_STEREO_COUNT>  (1) 
0

>  <PUBCHEM_ATOM_UDEF_STEREO_COUNT>  (1) 
0

>  <PUBCHEM_BOND_DEF_STEREO_COUNT>  (1) 
0

>  <PUBCHEM_BOND_UDEF_STEREO_COUNT>  (1) 
0

>  <PUBCHEM_ISOTOPIC_ATOM_COUNT>  (1) 
0

>  <PUBCHEM_COMPONENT_COUNT>  (1) 
1

>  <PUBCHEM_CACTVS_TAUTO_COUNT>  (1) 
1

>  <PUBCHEM_CONFORMER_ID>  (1) 
00001DE600000001

>  <PUBCHEM_MMFF94_ENERGY>  (1) 
21.6375

>  <PUBCHEM_FEATURE_SELFOVERLAP>  (1) 
10.148

>  <PUBCHEM_SHAPE_FINGERPRINT>  (1) 
10857977 72 12031512163352977185
11031198 65 14129051495935107673
11127187 94 18409168813876401223
11137873 295 18341054034049442795
12186901 62 17313097536999414759
122479 349 9222963568670477715
12251169 10 11455888074546455322
12696612 119 11239992386653724802
12897270 3 18113897207946308177
13296908 3 18131626798690011384
13897977 13 9871450046074950491
15775835 57 13623520281715489143
17834072 14 18339905044793854858
18186145 218 14490476365827761868
18619055 16 18334576815571892098
19107657 9 12468639387321797886
20201158 50 18411698794205432206
20279233 1 18339915000237902896
20361792 2 17489586787649660769
20645476 183 16588013637158043019
20645477 70 17917142913828773197
20653085 51 16877947109460390685
20671657 53 18343022194433987760
20871999 31 17968090954329212477
22169311 14 12247690356819540486
22802520 49 18187643656440212721
23403322 49 18341612556087027246
23559900 14 18339068316698409272
27216 239 8862641496118683342
369184 2 12679465278955062953
81228 2 17701547194947296064

>  <PUBCHEM_SHAPE_MULTIPOLES>  (1) 
235.22
6.13
1.7
1.03
3.66
0.2
0.01
2.35
2.03
0.23
-0.22
-0.33
-0.1
0.2

>  <PUBCHEM_SHAPE_SELFOVERLAP>  (1) 
476.122

>  <PUBCHEM_SHAPE_VOLUME>  (1) 
136.9

>  <PUBCHEM_COORDINATE_TYPE>  (1) 
2
5
10

$$$$
