7660
     RDKit          3D

 13 13  0  0  0  0  0  0  0  0999 V2000
    2.8449   -0.3996    0.0218 O   0  0  0  0  0  0  0  0  0  0  0  0
    4.7015    0.9541   -0.2192 O   0  0  0  0  0  0  0  0  0  0  0  0
   -1.8096    0.3030    0.0732 C   0  0  0  0  0  0  0  0  0  0  0  0
   -0.4213    0.7370    0.0864 C   0  0  0  0  0  0  0  0  0  0  0  0
   -2.1255   -1.0133   -0.2635 C   0  0  0  0  0  0  0  0  0  0  0  0
   -2.8249    1.2030    0.3972 C   0  0  0  0  0  0  0  0  0  0  0  0
    0.6054    0.1273   -0.5487 C   0  0  0  0  0  0  0  0  0  0  0  0
    2.0165    0.6206   -0.5184 C   0  0  0  0  0  0  0  0  0  0  0  0
   -3.4568   -1.4296   -0.2765 C   0  0  0  0  0  0  0  0  0  0  0  0
   -4.1561    0.7865    0.3842 C   0  0  0  0  0  0  0  0  0  0  0  0
   -4.4720   -0.5298    0.0475 C   0  0  0  0  0  0  0  0  0  0  0  0
    4.1761   -0.0989    0.1161 C   0  0  0  0  0  0  0  0  0  0  0  0
    4.9218   -1.2603    0.7000 C   0  0  0  0  0  0  0  0  0  0  0  0
  1  8  1  0
  1 12  1  0
  2 12  2  0
  3  4  1  0
  3  5  2  0
  3  6  1  0
  4  7  2  0
  5  9  1  0
  6 10  2  0
  7  8  1  0
  9 11  2  0
 10 11  1  0
 12 13  1  0
M  END
>  <PUBCHEM_COMPOUND_CID>  (1) 
7660

>  <PUBCHEM_CONFORMER_RMSD>  (1) 
0.6

>  <PUBCHEM_CONFORMER_DIVERSEORDER>  (1) 
1
18
8
20
11
10
9
2
17
24
15
19
22
14
5
6
7
4
3
23
21
16
13
12

>  <PUBCHEM_MMFF94_PARTIAL_CHARGES>  (1) 
20
1 -0.43
10 -0.15
11 -0.15
12 0.66
13 0.06
14 0.15
17 0.15
18 0.15
19 0.15
2 -0.57
20 0.15
21 0.15
22 0.15
3 0.03
4 -0.18
5 -0.15
6 -0.15
7 -0.29
8 0.42
9 -0.15

>  <PUBCHEM_EFFECTIVE_ROTOR_COUNT>  (1) 
4

>  <PUBCHEM_PHARMACOPHORE_FEATURES>  (1) 
2
1 2 acceptor
6 3 5 6 9 10 11 rings

>  <PUBCHEM_HEAVY_ATOM_COUNT>  (1) 
13

>  <PUBCHEM_ATOM_DEF_STEREO_COUNT>  (1) 
0

>  <PUBCHEM_ATOM_UDEF_STEREO_COUNT>  (1) 
0

>  <PUBCHEM_BOND_DEF_STEREO_COUNT>  (1) 
0

>  <PUBCHEM_BOND_UDEF_STEREO_COUNT>  (1) 
1

>  <PUBCHEM_ISOTOPIC_ATOM_COUNT>  (1) 
0

>  <PUBCHEM_COMPONENT_COUNT>  (1) 
1

>  <PUBCHEM_CACTVS_TAUTO_COUNT>  (1) 
1

>  <PUBCHEM_CONFORMER_ID>  (1) 
00001DEC00000001

>  <PUBCHEM_MMFF94_ENERGY>  (1) 
25.7449

>  <PUBCHEM_FEATURE_SELFOVERLAP>  (1) 
10.148

>  <PUBCHEM_SHAPE_FINGERPRINT>  (1) 
10465860 250 17989485212453193913
10680689 15 17168143420913236365
10912923 1 18409732867715584320
114248 4 12685096986102433774
12107183 9 17690280409276637856
13167823 11 18408039602607938466
13690532 89 18186238433081976074
14123238 8 18411420622074247100
17834072 33 18336549404004402844
18186145 218 14851608807749348252
200 152 18335698364740044095
20279233 1 17203335506884618973
204376 136 14979953692163644476
20645477 56 18272095946701423945
20645477 70 15719386197420395578
20828058 44 18343863307759451818
22485316 2 18408039615392353572
22646028 1 18334293171441388210
23402539 116 18273208686775496901
23559900 14 18342452677364833816
23590187 198 18334575715791407962
300161 21 18335415785972737956
42 15 18409449172129823270
4214541 1 18411419479560432624
449060 50 12679464196343781549
5104073 3 18413392059239147912
559249 180 18262230015436961115
573450 72 18411415090150997827
77779 3 18411983567964829112

>  <PUBCHEM_SHAPE_MULTIPOLES>  (1) 
255.8
11.26
1.31
0.73
9.49
0.21
-0.01
1.8
-1.57
-0.42
-0.05
0.12
0.02
-0.81

>  <PUBCHEM_SHAPE_SELFOVERLAP>  (1) 
519.368

>  <PUBCHEM_SHAPE_VOLUME>  (1) 
148.8

>  <PUBCHEM_COORDINATE_TYPE>  (1) 
2
5
10

$$$$
