7670
     RDKit          3D

  9  9  0  0  0  0  0  0  0  0999 V2000
    1.4585   -0.5244   -0.0093 N   0  0  0  0  0  0  0  0  0  0  0  0
    0.0747   -0.2517   -0.0046 C   0  0  0  0  0  0  0  0  0  0  0  0
    2.4528    0.5037   -0.0120 C   0  0  0  0  0  0  0  0  0  0  0  0
   -0.3764    1.0683   -0.0024 C   0  0  0  0  0  0  0  0  0  0  0  0
   -0.8430   -1.3023   -0.0017 C   0  0  0  0  0  0  0  0  0  0  0  0
    3.8525   -0.0862    0.0179 C   0  0  0  0  0  0  0  0  0  0  0  0
   -1.7449    1.3379    0.0029 C   0  0  0  0  0  0  0  0  0  0  0  0
   -2.2116   -1.0327    0.0035 C   0  0  0  0  0  0  0  0  0  0  0  0
   -2.6625    0.2874    0.0058 C   0  0  0  0  0  0  0  0  0  0  0  0
  1  2  1  0
  1  3  1  0
  2  4  2  0
  2  5  1  0
  3  6  1  0
  4  7  1  0
  5  8  2  0
  7  9  2  0
  8  9  1  0
M  END
>  <PUBCHEM_COMPOUND_CID>  (1) 
7670

>  <PUBCHEM_CONFORMER_RMSD>  (1) 
0.4

>  <PUBCHEM_CONFORMER_DIVERSEORDER>  (1) 
1
2
3

>  <PUBCHEM_MMFF94_PARTIAL_CHARGES>  (1) 
14
1 -0.87
12 0.4
13 0.15
14 0.15
18 0.15
19 0.15
2 0.1
20 0.15
3 0.37
4 -0.15
5 -0.15
7 -0.15
8 -0.15
9 -0.15

>  <PUBCHEM_EFFECTIVE_ROTOR_COUNT>  (1) 
2

>  <PUBCHEM_PHARMACOPHORE_FEATURES>  (1) 
3
1 1 cation
1 1 donor
6 2 4 5 7 8 9 rings

>  <PUBCHEM_HEAVY_ATOM_COUNT>  (1) 
9

>  <PUBCHEM_ATOM_DEF_STEREO_COUNT>  (1) 
0

>  <PUBCHEM_ATOM_UDEF_STEREO_COUNT>  (1) 
0

>  <PUBCHEM_BOND_DEF_STEREO_COUNT>  (1) 
0

>  <PUBCHEM_BOND_UDEF_STEREO_COUNT>  (1) 
0

>  <PUBCHEM_ISOTOPIC_ATOM_COUNT>  (1) 
0

>  <PUBCHEM_COMPONENT_COUNT>  (1) 
1

>  <PUBCHEM_CACTVS_TAUTO_COUNT>  (1) 
1

>  <PUBCHEM_CONFORMER_ID>  (1) 
00001DF600000001

>  <PUBCHEM_MMFF94_ENERGY>  (1) 
26.6497

>  <PUBCHEM_FEATURE_SELFOVERLAP>  (1) 
15.223

>  <PUBCHEM_SHAPE_FINGERPRINT>  (1) 
10857977 72 18340477971402429641
11062470 55 14345792747040367948
12897270 3 18412261744279939028
12932764 1 17312812784614510444
13024252 1 15864070970725770985
14325111 11 18410855439080625696
14390081 3 18342736308362132488
20201158 50 18202847643083628918
20645464 45 18060143123867452758
20871998 184 18201162168967861839
21040471 1 18266459798161755813
23235685 24 18340482279529037773
23402655 69 18195789788611017357
23552423 10 18116150158911429540
29004967 10 16487260971140690350
369184 2 18407758140172971931
6333449 129 18342736321146697133

>  <PUBCHEM_SHAPE_MULTIPOLES>  (1) 
180.23
4.99
1.33
0.61
4.9
0.03
0
0.04
0.03
-0.74
0
-0.01
0
0

>  <PUBCHEM_SHAPE_SELFOVERLAP>  (1) 
361.746

>  <PUBCHEM_SHAPE_VOLUME>  (1) 
106.5

>  <PUBCHEM_COORDINATE_TYPE>  (1) 
2
5
10

$$$$
