7675
     RDKit          3D

  9  9  0  0  0  0  0  0  0  0999 V2000
    2.5145    0.9096   -0.7959 O   0  0  0  0  0  0  0  0  0  0  0  0
   -0.2578    1.0108    0.5487 N   0  0  0  0  0  0  0  0  0  0  0  0
    1.5475   -0.5755    0.8426 C   0  0  0  0  0  0  0  0  0  0  0  0
    0.1494   -0.2717    0.4184 C   0  0  0  0  0  0  0  0  0  0  0  0
    2.5629   -0.4195   -0.2929 C   0  0  0  0  0  0  0  0  0  0  0  0
   -0.6469   -1.2919   -0.0768 C   0  0  0  0  0  0  0  0  0  0  0  0
   -1.9445   -0.9754   -0.4630 C   0  0  0  0  0  0  0  0  0  0  0  0
   -2.3999    0.3331   -0.3441 C   0  0  0  0  0  0  0  0  0  0  0  0
   -1.5252    1.2805    0.1631 C   0  0  0  0  0  0  0  0  0  0  0  0
  1  5  1  0
  2  4  2  0
  2  9  1  0
  3  4  1  0
  3  5  1  0
  4  6  1  0
  6  7  2  0
  7  8  1  0
  8  9  2  0
M  END
>  <PUBCHEM_COMPOUND_CID>  (1) 
7675

>  <PUBCHEM_CONFORMER_RMSD>  (1) 
0.4

>  <PUBCHEM_CONFORMER_DIVERSEORDER>  (1) 
1
10
5
12
7
2
8
4
6
9
11
3

>  <PUBCHEM_MMFF94_PARTIAL_CHARGES>  (1) 
14
1 -0.68
14 0.15
15 0.15
16 0.15
17 0.15
18 0.4
2 -0.62
3 0.14
4 0.17
5 0.28
6 -0.15
7 -0.15
8 -0.15
9 0.16

>  <PUBCHEM_EFFECTIVE_ROTOR_COUNT>  (1) 
2

>  <PUBCHEM_PHARMACOPHORE_FEATURES>  (1) 
4
1 1 acceptor
1 1 donor
1 2 acceptor
6 2 4 6 7 8 9 rings

>  <PUBCHEM_HEAVY_ATOM_COUNT>  (1) 
9

>  <PUBCHEM_ATOM_DEF_STEREO_COUNT>  (1) 
0

>  <PUBCHEM_ATOM_UDEF_STEREO_COUNT>  (1) 
0

>  <PUBCHEM_BOND_DEF_STEREO_COUNT>  (1) 
0

>  <PUBCHEM_BOND_UDEF_STEREO_COUNT>  (1) 
0

>  <PUBCHEM_ISOTOPIC_ATOM_COUNT>  (1) 
0

>  <PUBCHEM_COMPONENT_COUNT>  (1) 
1

>  <PUBCHEM_CACTVS_TAUTO_COUNT>  (1) 
2

>  <PUBCHEM_CONFORMER_ID>  (1) 
00001DFB00000001

>  <PUBCHEM_MMFF94_ENERGY>  (1) 
17.502

>  <PUBCHEM_FEATURE_SELFOVERLAP>  (1) 
20.298

>  <PUBCHEM_SHAPE_FINGERPRINT>  (1) 
12716758 59 18272930484004624890
12897270 3 18342461477821018214
14390081 3 18260266373590016188
15310529 11 17530959159892839419
15775835 57 18040723545419178804
16714656 1 18343300357858771531
16945 1 18272078392742349483
20645464 45 17345450691773105306
20653085 51 18114475465289773084
21040471 1 18055341453715409835
23552423 10 18264766571376863635
29004967 10 14979948173093751970
369184 2 8502372209004937551
5084963 1 18264480694100418010

>  <PUBCHEM_SHAPE_MULTIPOLES>  (1) 
174.37
3.64
1.34
0.83
1.36
0.04
0.02
0.26
-0.84
-0.38
-0.03
0.25
0.02
-0.35

>  <PUBCHEM_SHAPE_SELFOVERLAP>  (1) 
352.529

>  <PUBCHEM_SHAPE_VOLUME>  (1) 
101.4

>  <PUBCHEM_COORDINATE_TYPE>  (1) 
2
5
10

$$$$
