7701
     RDKit          3D

 19 19  0  0  0  0  0  0  0  0999 V2000
    8.3704   -1.3648   -0.4361 N   0  0  0  0  0  0  0  0  0  0  0  0
   -2.9954   -0.0370   -0.3417 C   0  0  0  0  0  0  0  0  0  0  0  0
   -1.7899    0.7780    0.1393 C   0  0  0  0  0  0  0  0  0  0  0  0
   -4.3388    0.5256    0.1285 C   0  0  0  0  0  0  0  0  0  0  0  0
   -0.4123    0.2088   -0.2227 C   0  0  0  0  0  0  0  0  0  0  0  0
   -5.5320   -0.3407   -0.2921 C   0  0  0  0  0  0  0  0  0  0  0  0
    0.7922    0.9874    0.3158 C   0  0  0  0  0  0  0  0  0  0  0  0
   -6.8773    0.2347    0.1625 C   0  0  0  0  0  0  0  0  0  0  0  0
    2.1400    0.3422   -0.0232 C   0  0  0  0  0  0  0  0  0  0  0  0
   -8.0713   -0.6536   -0.1986 C   0  0  0  0  0  0  0  0  0  0  0  0
    3.3314    1.1460    0.5133 C   0  0  0  0  0  0  0  0  0  0  0  0
   -9.4150   -0.0639    0.2313 C   0  0  0  0  0  0  0  0  0  0  0  0
    4.6635    0.4822    0.2622 C   0  0  0  0  0  0  0  0  0  0  0  0
  -10.5694   -0.9746   -0.1578 C   0  0  0  0  0  0  0  0  0  0  0  0
    5.1913   -0.4009    1.2043 C   0  0  0  0  0  0  0  0  0  0  0  0
    5.3668    0.7515   -0.9119 C   0  0  0  0  0  0  0  0  0  0  0  0
    6.4224   -1.0143    0.9724 C   0  0  0  0  0  0  0  0  0  0  0  0
    6.5978    0.1381   -1.1439 C   0  0  0  0  0  0  0  0  0  0  0  0
    7.1256   -0.7447   -0.2017 C   0  0  0  0  0  0  0  0  0  0  0  0
  1 19  1  0
  2  3  1  0
  2  4  1  0
  3  5  1  0
  4  6  1  0
  5  7  1  0
  6  8  1  0
  7  9  1  0
  8 10  1  0
  9 11  1  0
 10 12  1  0
 11 13  1  0
 12 14  1  0
 13 15  2  0
 13 16  1  0
 15 17  1  0
 16 18  2  0
 17 19  2  0
 18 19  1  0
M  END
>  <PUBCHEM_COMPOUND_CID>  (1) 
7701

>  <PUBCHEM_CONFORMER_RMSD>  (1) 
1.2

>  <PUBCHEM_CONFORMER_DIVERSEORDER>  (1) 
1
35
8
46
76
56
68
66
6
19
49
59
58
9
55
27
38
33
54
43
11
53
2
13
51
10
22
21
52
29
41
15
32
67
44
62
24
45
3
60
16
28
70
37
73
65
31
47
34
5
20
77
7
63
40
39
75
4
50
17
74
25
57
48
78
12
71
30
64
72
14
69
61
26
42
18
23
36

>  <PUBCHEM_MMFF94_PARTIAL_CHARGES>  (1) 
14
1 -0.9
11 0.14
13 -0.14
15 -0.15
16 -0.15
17 -0.15
18 -0.15
19 0.1
45 0.15
46 0.15
47 0.15
48 0.15
49 0.4
50 0.4

>  <PUBCHEM_EFFECTIVE_ROTOR_COUNT>  (1) 
11

>  <PUBCHEM_PHARMACOPHORE_FEATURES>  (1) 
4
1 1 cation
1 1 donor
1 14 hydrophobe
6 13 15 16 17 18 19 rings

>  <PUBCHEM_HEAVY_ATOM_COUNT>  (1) 
19

>  <PUBCHEM_ATOM_DEF_STEREO_COUNT>  (1) 
0

>  <PUBCHEM_ATOM_UDEF_STEREO_COUNT>  (1) 
0

>  <PUBCHEM_BOND_DEF_STEREO_COUNT>  (1) 
0

>  <PUBCHEM_BOND_UDEF_STEREO_COUNT>  (1) 
0

>  <PUBCHEM_ISOTOPIC_ATOM_COUNT>  (1) 
0

>  <PUBCHEM_COMPONENT_COUNT>  (1) 
1

>  <PUBCHEM_CACTVS_TAUTO_COUNT>  (1) 
1

>  <PUBCHEM_CONFORMER_ID>  (1) 
00001E1500000001

>  <PUBCHEM_MMFF94_ENERGY>  (1) 
27.9656

>  <PUBCHEM_FEATURE_SELFOVERLAP>  (1) 
20.297

>  <PUBCHEM_SHAPE_FINGERPRINT>  (1) 
10299344 5 18187364329020801667
11315181 36 12612752407668264517
11638347 137 15985108500334548870
12592606 108 18187646938391137339
14123256 10 12107786306984084639
14202775 3 18342462560829062655
14216079 64 18131072619207345742
14251764 18 18335139783179865017
14251764 46 18410855468718096388
14344974 52 14346088550170409446
14428016 248 12612752394393083199
155225 1 8142077664207240182
15690457 1 18272649047619296895
1754911 235 14851603293908021703
1818759 1 18260551134886855387
21095086 128 18261110773045723915
21150785 3 15213019349324978841
21267235 1 18412544305715031737
21315763 28 18343301483715664449
21360442 33 13768748099004164104
21360442 67 15719392832696540658
21360443 126 14707214326555798296
21362267 313 10879453681243246487
21792934 111 15770055030154210769
221357 26 16732701637102229460
22224240 67 13470688148760403797
22956985 138 17839187308225431718
232437 2 18335421288643528123
23521765 1 18343021104013220589
246663 6 18408042909911825033
249057 3 13984668070778647923
28498 318 18411698777362971885
33532 11 18408882919199358610
33684 2 18410573985156725893
5283156 175 18261112976237398397
5758199 1 10881396531101101205
59521099 67 17748830735508417940
67123 10 8358258142865059729
8209 1 13479131303129528861

>  <PUBCHEM_SHAPE_MULTIPOLES>  (1) 
386.03
35.63
1.08
0.91
60.84
0.08
0.01
13.75
-2.71
-1.03
0.05
-1.41
0.03
-0.52

>  <PUBCHEM_SHAPE_SELFOVERLAP>  (1) 
742.578

>  <PUBCHEM_SHAPE_VOLUME>  (1) 
236.5

>  <PUBCHEM_COORDINATE_TYPE>  (1) 
2
5
10

$$$$
