7703
     RDKit          3D

 11 11  0  0  0  0  0  0  0  0999 V2000
    3.2018    0.5781    0.0532 O   0  0  0  0  0  0  0  0  0  0  0  0
   -0.8635   -0.2451   -0.0982 C   0  0  0  0  0  0  0  0  0  0  0  0
   -0.4190    1.0770   -0.1021 C   0  0  0  0  0  0  0  0  0  0  0  0
    0.0582   -1.2906   -0.0432 C   0  0  0  0  0  0  0  0  0  0  0  0
    1.8689    0.3081    0.0038 C   0  0  0  0  0  0  0  0  0  0  0  0
    0.9473    1.3536   -0.0512 C   0  0  0  0  0  0  0  0  0  0  0  0
    1.4244   -1.0140    0.0078 C   0  0  0  0  0  0  0  0  0  0  0  0
   -2.2879   -0.5338   -0.1520 C   0  0  0  0  0  0  0  0  0  0  0  0
   -3.2833    0.3242    0.1679 C   0  0  0  0  0  0  0  0  0  0  0  0
   -4.7361   -0.0196    0.1062 C   0  0  0  0  0  0  0  0  0  0  0  0
    4.0892   -0.5379    0.1079 C   0  0  0  0  0  0  0  0  0  0  0  0
  1  5  1  0
  1 11  1  0
  2  3  2  0
  2  4  1  0
  2  8  1  0
  3  6  1  0
  4  7  2  0
  5  6  2  0
  5  7  1  0
  8  9  2  0
  9 10  1  0
M  END
>  <PUBCHEM_COMPOUND_CID>  (1) 
7703

>  <PUBCHEM_CONFORMER_RMSD>  (1) 
0.4

>  <PUBCHEM_CONFORMER_DIVERSEORDER>  (1) 
1

>  <PUBCHEM_MMFF94_PARTIAL_CHARGES>  (1) 
17
1 -0.36
10 0.14
11 0.28
12 0.15
13 0.15
14 0.15
15 0.15
16 0.15
17 0.15
2 0.03
3 -0.15
4 -0.15
5 0.08
6 -0.15
7 -0.15
8 -0.18
9 -0.29

>  <PUBCHEM_EFFECTIVE_ROTOR_COUNT>  (1) 
2

>  <PUBCHEM_PHARMACOPHORE_FEATURES>  (1) 
3
1 1 acceptor
1 10 hydrophobe
6 2 3 4 5 6 7 rings

>  <PUBCHEM_HEAVY_ATOM_COUNT>  (1) 
11

>  <PUBCHEM_ATOM_DEF_STEREO_COUNT>  (1) 
0

>  <PUBCHEM_ATOM_UDEF_STEREO_COUNT>  (1) 
0

>  <PUBCHEM_BOND_DEF_STEREO_COUNT>  (1) 
0

>  <PUBCHEM_BOND_UDEF_STEREO_COUNT>  (1) 
1

>  <PUBCHEM_ISOTOPIC_ATOM_COUNT>  (1) 
0

>  <PUBCHEM_COMPONENT_COUNT>  (1) 
1

>  <PUBCHEM_CACTVS_TAUTO_COUNT>  (1) 
1

>  <PUBCHEM_CONFORMER_ID>  (1) 
00001E1700000001

>  <PUBCHEM_MMFF94_ENERGY>  (1) 
34.9657

>  <PUBCHEM_FEATURE_SELFOVERLAP>  (1) 
15.223

>  <PUBCHEM_SHAPE_FINGERPRINT>  (1) 
10130415 120 18334855030562897784
10219947 1 18409451388100858893
11062470 55 14045743724844365249
11401426 45 18343013402276898892
11471102 20 18409726266044778285
12032990 46 18409453561554920174
12932764 1 16153973759628905491
13380535 76 18411702093030758207
13690532 89 18410011026629304698
14325111 11 18339079392664639317
14993402 34 18342740727704041135
16945 1 18335406980925615396
18511873 20 18343301500156548493
193761 8 17689997838830058406
20201158 50 18333733507280548707
20645477 70 18337947866984187591
20871998 22 18198628718036281934
23235685 24 18410568504778462698
23402539 116 15985099692016241233
23402655 69 18341321198965315413
2748010 2 18122339073720016468
366044 4 18411699902328256026
528886 8 18412258454234919475
53655031 270 18341332210332852377

>  <PUBCHEM_SHAPE_MULTIPOLES>  (1) 
220.51
7.12
1.24
0.62
3.28
0.06
0
-0.35
-0.52
-0.38
0.02
0.04
-0.01
-0.05

>  <PUBCHEM_SHAPE_SELFOVERLAP>  (1) 
449.083

>  <PUBCHEM_SHAPE_VOLUME>  (1) 
129.6

>  <PUBCHEM_COORDINATE_TYPE>  (1) 
2
5
10

$$$$
