7718
     RDKit          3D

 18 18  0  0  0  0  0  0  0  0999 V2000
   -5.0750    0.3284    0.1563 N   0  0  0  0  0  0  0  0  0  0  0  0
    2.4379   -0.0940   -0.1911 C   0  0  0  0  0  0  0  0  0  0  0  0
    1.2476    0.7713    0.2314 C   0  0  0  0  0  0  0  0  0  0  0  0
    3.7949    0.5580    0.0898 C   0  0  0  0  0  0  0  0  0  0  0  0
   -0.0784    0.0602   -0.0528 C   0  0  0  0  0  0  0  0  0  0  0  0
    4.9854   -0.3365   -0.2637 C   0  0  0  0  0  0  0  0  0  0  0  0
   -1.3086    0.9074    0.2846 C   0  0  0  0  0  0  0  0  0  0  0  0
    6.3109    0.3356    0.1049 C   0  0  0  0  0  0  0  0  0  0  0  0
   -2.6324    0.1878    0.0242 C   0  0  0  0  0  0  0  0  0  0  0  0
    7.5007   -0.5729   -0.2133 C   0  0  0  0  0  0  0  0  0  0  0  0
   -3.8182    1.0645    0.4131 C   0  0  0  0  0  0  0  0  0  0  0  0
    8.8502    0.0409    0.1654 C   0  0  0  0  0  0  0  0  0  0  0  0
   10.0341   -0.8683   -0.1252 C   0  0  0  0  0  0  0  0  0  0  0  0
   -5.5903   -0.4306    1.1329 C   0  0  0  0  0  0  0  0  0  0  0  0
   -5.6577    0.4447   -1.0449 C   0  0  0  0  0  0  0  0  0  0  0  0
   -6.7686   -1.1321    0.9204 C   0  0  0  0  0  0  0  0  0  0  0  0
   -6.8373   -0.2345   -1.3141 C   0  0  0  0  0  0  0  0  0  0  0  0
   -7.3954   -1.0299   -0.3178 C   0  0  0  0  0  0  0  0  0  0  0  0
  1 11  1  0
  1 14  2  0
  1 15  1  0
  2  3  1  0
  2  4  1  0
  3  5  1  0
  4  6  1  0
  5  7  1  0
  6  8  1  0
  7  9  1  0
  8 10  1  0
  9 11  1  0
 10 12  1  0
 12 13  1  0
 14 16  1  0
 15 17  2  0
 16 18  2  0
 17 18  1  0
M  CHG  1   1   1
M  END
>  <PUBCHEM_COMPOUND_CID>  (1) 
7718

>  <PUBCHEM_CONFORMER_RMSD>  (1) 
1.2

>  <PUBCHEM_CONFORMER_DIVERSEORDER>  (1) 
1
20
19
63
7
87
2
41
43
24
56
9
39
70
28
32
46
78
10
73
13
86
66
37
48
40
5
33
26
18
22
53
35
47
8
51
29
80
44
82
55
25
45
65
34
3
61
74
57
81
23
50
85
49
30
72
17
15
38
76
6
69
84
79
16
36
14
27
59
83
54
67
12
58
68
11
52
42
31
75
21
60
71
4
77
62
64

>  <PUBCHEM_MMFF94_PARTIAL_CHARGES>  (1) 
12
1 -0.21
11 0.49
14 0.21
15 0.21
16 -0.15
17 -0.15
18 -0.15
44 0.15
45 0.15
46 0.15
47 0.15
48 0.15

>  <PUBCHEM_EFFECTIVE_ROTOR_COUNT>  (1) 
11

>  <PUBCHEM_PHARMACOPHORE_FEATURES>  (1) 
2
1 13 hydrophobe
6 1 14 15 16 17 18 rings

>  <PUBCHEM_HEAVY_ATOM_COUNT>  (1) 
18

>  <PUBCHEM_ATOM_DEF_STEREO_COUNT>  (1) 
0

>  <PUBCHEM_ATOM_UDEF_STEREO_COUNT>  (1) 
0

>  <PUBCHEM_BOND_DEF_STEREO_COUNT>  (1) 
0

>  <PUBCHEM_BOND_UDEF_STEREO_COUNT>  (1) 
0

>  <PUBCHEM_ISOTOPIC_ATOM_COUNT>  (1) 
0

>  <PUBCHEM_COMPONENT_COUNT>  (1) 
1

>  <PUBCHEM_CACTVS_TAUTO_COUNT>  (1) 
1

>  <PUBCHEM_CONFORMER_ID>  (1) 
00001E2600000001

>  <PUBCHEM_MMFF94_ENERGY>  (1) 
15.4336

>  <PUBCHEM_FEATURE_SELFOVERLAP>  (1) 
10.148

>  <PUBCHEM_SHAPE_FINGERPRINT>  (1) 
10066227 49 18114460047006696418
10299344 5 16702302360416756510
11315181 36 17822013112534239201
11638347 137 16845294913726467542
12091667 2 18060138730844078049
13885169 127 17458623393639642268
14123256 10 18410292510243455182
14202775 3 18341056229933830966
14251764 18 17561365080538927110
14251764 46 18410573985151457638
14428016 248 13758353402158644058
14617042 71 10735574918766020322
14729087 3 9295292729153171619
15461852 350 16660369198593851306
155225 1 10665219355367668591
15690457 1 18413387631972007078
15716309 27 17418094334636486225
16120349 18 18187648046920643652
17093844 174 13758358869599081755
1754911 235 14490196012402206278
18006028 8 18410855460587597948
195137 175 13190340154034784086
20621476 8 8574715702463651584
21095086 128 18341894078877810866
21095123 145 12175613014654341637
21150785 3 17240482507128816956
21315763 28 18413108351676410840
21360442 43 15140972798317987353
21360443 89 12966832578130988605
21362267 20 17417805163158640926
22224240 67 17346877854251414670
232437 2 17632860811994114262
23521765 1 18341895186820948776
23528940 14 15913036665013542319
23559900 14 17749951193633257153
246663 6 18131071532923485036
28498 318 12757145771811251792
33684 2 18410573980856490341
5758199 1 14620795994452810988
59682541 35 17418370312276669330
636775 8 15792022225291346619
67123 10 18334296475168089636
8209 1 13912323482646650900

>  <PUBCHEM_SHAPE_MULTIPOLES>  (1) 
365.45
32.99
1.01
0.93
50.01
0.04
0.06
10.94
2.21
-0.66
-0.08
-1.74
0.07
0.51

>  <PUBCHEM_SHAPE_SELFOVERLAP>  (1) 
698.245

>  <PUBCHEM_SHAPE_VOLUME>  (1) 
223.5

>  <PUBCHEM_COORDINATE_TYPE>  (1) 
2
5
10

$$$$
