7719
     RDKit          3D

  9  8  0  0  1  0  0  0  0  0999 V2000
    1.3046   -1.9768    0.6258 N   0  0  0  0  0  0  0  0  0  0  0  0
    0.9678    0.3038   -0.3676 C   0  0  0  0  0  0  0  0  0  0  0  0
   -0.3669    0.6136    0.3533 C   0  0  0  0  0  0  0  0  0  0  0  0
    2.1201    0.9801    0.4133 C   0  0  0  0  0  0  0  0  0  0  0  0
   -1.6391    0.0820   -0.3175 C   0  0  0  0  0  0  0  0  0  0  0  0
    1.2031   -1.2030   -0.6066 C   0  0  0  0  0  0  0  0  0  0  0  0
   -2.9248    0.4990    0.3968 C   0  0  0  0  0  0  0  0  0  0  0  0
    3.4830    0.8363   -0.2492 C   0  0  0  0  0  0  0  0  0  0  0  0
   -4.1478   -0.1351   -0.2484 C   0  0  0  0  0  0  0  0  0  0  0  0
  1  6  1  0
  2  3  1  0
  2  4  1  0
  2  6  1  0
  3  5  1  0
  4  8  1  0
  5  7  1  0
  7  9  1  0
M  END
>  <PUBCHEM_COMPOUND_CID>  (1) 
7719

>  <PUBCHEM_CONFORMER_RMSD>  (1) 
0.6

>  <PUBCHEM_CONFORMER_DIVERSEORDER>  (1) 
1
37
62
79
89
24
53
83
74
75
96
8
81
60
71
77
15
80
90
93
91
94
19
9
5
59
69
47
84
76
78
92
88
29
10
26
95
12
56
52
2
49
33
85
39
31
57
34
63
72
86
22
82
20
7
36
6
68
35
27
48
64
44
67
87
23
73
17
43
46
30
51
4
58
16
42
14
28
18
45
25
55
40
50
11
61
41
70
3
54
13
65
32
38
66
21

>  <PUBCHEM_MMFF94_PARTIAL_CHARGES>  (1) 
4
1 -0.99
27 0.36
28 0.36
6 0.27

>  <PUBCHEM_EFFECTIVE_ROTOR_COUNT>  (1) 
5

>  <PUBCHEM_PHARMACOPHORE_FEATURES>  (1) 
5
1 1 cation
1 1 donor
1 8 hydrophobe
1 9 hydrophobe
5 2 3 4 5 7 hydrophobe

>  <PUBCHEM_HEAVY_ATOM_COUNT>  (1) 
9

>  <PUBCHEM_ATOM_DEF_STEREO_COUNT>  (1) 
0

>  <PUBCHEM_ATOM_UDEF_STEREO_COUNT>  (1) 
1

>  <PUBCHEM_BOND_DEF_STEREO_COUNT>  (1) 
0

>  <PUBCHEM_BOND_UDEF_STEREO_COUNT>  (1) 
0

>  <PUBCHEM_ISOTOPIC_ATOM_COUNT>  (1) 
0

>  <PUBCHEM_COMPONENT_COUNT>  (1) 
1

>  <PUBCHEM_CACTVS_TAUTO_COUNT>  (1) 
1

>  <PUBCHEM_CONFORMER_ID>  (1) 
00001E2700000001

>  <PUBCHEM_MMFF94_ENERGY>  (1) 
1.1255

>  <PUBCHEM_FEATURE_SELFOVERLAP>  (1) 
25.373

>  <PUBCHEM_SHAPE_FINGERPRINT>  (1) 
10219947 1 18113338630491328772
11062470 55 16732980946655747573
12932764 1 17489575758658843873
14325111 11 18341895242144009116
15310529 11 18340763759022268469
170605 34 18272936041681607060
20201158 50 18260832605040733649
20279233 1 17821452357124145731
20645477 70 18340482254207822191
20653091 64 18196374719330781258
23235685 24 18336262431084470252
23402539 116 17023453244385949717
23552333 60 18202284654180070538
23552449 11 18265329508445045323
3248919 1 17168438090446308981
366044 4 18271526494119478484
528862 383 18410286982578516142
581208 293 18408600366095679039
81539 233 18186800288077245390

>  <PUBCHEM_SHAPE_MULTIPOLES>  (1) 
180.23
6.19
1.38
0.77
4.48
0.74
0.01
-1.26
-0.38
-0.99
0.21
-0.08
0.08
-0.16

>  <PUBCHEM_SHAPE_SELFOVERLAP>  (1) 
315.348

>  <PUBCHEM_SHAPE_VOLUME>  (1) 
118.4

>  <PUBCHEM_COORDINATE_TYPE>  (1) 
2
5
10

$$$$
