7728
     RDKit          3D

  9  9  0  0  0  0  0  0  0  0999 V2000
   -1.1074    1.1945   -0.0202 N   0  0  0  0  0  0  0  0  0  0  0  0
    0.9686   -0.0144   -0.2922 C   0  0  0  0  0  0  0  0  0  0  0  0
    2.4414    0.0199   -0.4965 C   0  0  0  0  0  0  0  0  0  0  0  0
    0.2882   -1.2221   -0.1828 C   0  0  0  0  0  0  0  0  0  0  0  0
    0.2312    1.1555   -0.2049 C   0  0  0  0  0  0  0  0  0  0  0  0
    3.2141    0.0510    0.8214 C   0  0  0  0  0  0  0  0  0  0  0  0
   -1.7344    0.0010    0.0818 C   0  0  0  0  0  0  0  0  0  0  0  0
   -1.0892   -1.2230    0.0079 C   0  0  0  0  0  0  0  0  0  0  0  0
   -3.2125    0.0377    0.2855 C   0  0  0  0  0  0  0  0  0  0  0  0
  1  5  2  0
  1  7  1  0
  2  3  1  0
  2  4  2  0
  2  5  1  0
  3  6  1  0
  4  8  1  0
  7  8  2  0
  7  9  1  0
M  END
>  <PUBCHEM_COMPOUND_CID>  (1) 
7728

>  <PUBCHEM_CONFORMER_RMSD>  (1) 
0.4

>  <PUBCHEM_CONFORMER_DIVERSEORDER>  (1) 
2
1
4
3

>  <PUBCHEM_MMFF94_PARTIAL_CHARGES>  (1) 
11
1 -0.62
12 0.15
13 0.15
17 0.15
2 -0.14
3 0.14
4 -0.15
5 0.16
7 0.17
8 -0.15
9 0.14

>  <PUBCHEM_EFFECTIVE_ROTOR_COUNT>  (1) 
1

>  <PUBCHEM_PHARMACOPHORE_FEATURES>  (1) 
3
1 1 acceptor
1 6 hydrophobe
6 1 2 4 5 7 8 rings

>  <PUBCHEM_HEAVY_ATOM_COUNT>  (1) 
9

>  <PUBCHEM_ATOM_DEF_STEREO_COUNT>  (1) 
0

>  <PUBCHEM_ATOM_UDEF_STEREO_COUNT>  (1) 
0

>  <PUBCHEM_BOND_DEF_STEREO_COUNT>  (1) 
0

>  <PUBCHEM_BOND_UDEF_STEREO_COUNT>  (1) 
0

>  <PUBCHEM_ISOTOPIC_ATOM_COUNT>  (1) 
0

>  <PUBCHEM_COMPONENT_COUNT>  (1) 
1

>  <PUBCHEM_CACTVS_TAUTO_COUNT>  (1) 
1

>  <PUBCHEM_CONFORMER_ID>  (1) 
00001E3000000002

>  <PUBCHEM_MMFF94_ENERGY>  (1) 
17.4189

>  <PUBCHEM_FEATURE_SELFOVERLAP>  (1) 
15.223

>  <PUBCHEM_SHAPE_FINGERPRINT>  (1) 
10857977 72 18411417336345053544
11062470 55 16845856793209443969
14325111 11 18411984641395338828
15310529 11 16587743161381281748
16945 1 18410299111597522847
20645464 45 17917706916286493482
21040471 1 18338806614959760454
23235685 24 18411981355782248205
23402655 69 18195511612126985509
23552423 10 17754461471058664084
2748010 2 18121506743438895551
29004967 10 18261405437545091433
369184 2 18412535522786031530
5084963 1 18270128915597417428

>  <PUBCHEM_SHAPE_MULTIPOLES>  (1) 
180.23
4.35
1.22
0.74
0.61
0.06
-0.05
-0.17
-0.96
-0.25
0.06
0.3
0
0

>  <PUBCHEM_SHAPE_SELFOVERLAP>  (1) 
364.138

>  <PUBCHEM_SHAPE_VOLUME>  (1) 
106.2

>  <PUBCHEM_COORDINATE_TYPE>  (1) 
2
5
10

$$$$
