7743
     RDKit          3D

  9  9  0  0  1  0  0  0  0  0999 V2000
   -2.2298    0.7820    1.1750 N   0  0  0  0  0  0  0  0  0  0  0  0
    0.4703   -0.2030    0.2707 C   0  0  0  0  0  0  0  0  0  0  0  0
    1.6067   -1.2196    0.2234 C   0  0  0  0  0  0  0  0  0  0  0  0
    0.9918    0.9098   -0.6329 C   0  0  0  0  0  0  0  0  0  0  0  0
    2.8705   -0.3659    0.2621 C   0  0  0  0  0  0  0  0  0  0  0  0
    2.4718    1.0086   -0.2780 C   0  0  0  0  0  0  0  0  0  0  0  0
   -0.8614   -0.7716   -0.1872 C   0  0  0  0  0  0  0  0  0  0  0  0
   -2.0116    0.2505   -0.1705 C   0  0  0  0  0  0  0  0  0  0  0  0
   -3.3083   -0.3908   -0.6626 C   0  0  0  0  0  0  0  0  0  0  0  0
  1  8  1  0
  2  3  1  0
  2  4  1  0
  2  7  1  0
  3  5  1  0
  4  6  1  0
  5  6  1  0
  7  8  1  0
  8  9  1  0
M  END
>  <PUBCHEM_COMPOUND_CID>  (1) 
7743

>  <PUBCHEM_CONFORMER_RMSD>  (1) 
0.6

>  <PUBCHEM_CONFORMER_DIVERSEORDER>  (1) 
1
7
2
9
4
3
8
5
6

>  <PUBCHEM_MMFF94_PARTIAL_CHARGES>  (1) 
4
1 -0.99
25 0.36
26 0.36
8 0.27

>  <PUBCHEM_EFFECTIVE_ROTOR_COUNT>  (1) 
3

>  <PUBCHEM_PHARMACOPHORE_FEATURES>  (1) 
3
1 1 cation
1 1 donor
5 2 3 4 5 6 rings

>  <PUBCHEM_HEAVY_ATOM_COUNT>  (1) 
9

>  <PUBCHEM_ATOM_DEF_STEREO_COUNT>  (1) 
0

>  <PUBCHEM_ATOM_UDEF_STEREO_COUNT>  (1) 
1

>  <PUBCHEM_BOND_DEF_STEREO_COUNT>  (1) 
0

>  <PUBCHEM_BOND_UDEF_STEREO_COUNT>  (1) 
0

>  <PUBCHEM_ISOTOPIC_ATOM_COUNT>  (1) 
0

>  <PUBCHEM_COMPONENT_COUNT>  (1) 
1

>  <PUBCHEM_CACTVS_TAUTO_COUNT>  (1) 
1

>  <PUBCHEM_CONFORMER_ID>  (1) 
00001E3F00000001

>  <PUBCHEM_MMFF94_ENERGY>  (1) 
5.095

>  <PUBCHEM_FEATURE_SELFOVERLAP>  (1) 
15.223

>  <PUBCHEM_SHAPE_FINGERPRINT>  (1) 
10219947 1 18113897161097176862
10857977 72 15647061494470013685
12932741 1 16660650660827844411
12932764 1 18409170991182110101
14325111 11 18335136514060912687
14390081 3 18202564011796043344
15310529 11 15985107396612421061
15775835 57 18343027674675133521
20201158 50 17531241738423028547
21040471 1 18117563044686306062
23402655 69 18335126588681629485
23552423 10 18057893450252886023
29004967 10 17458631090289471880
3248919 1 18342459239869003579
5084963 1 18411130329635094771
8030462 33 18201722859662509335

>  <PUBCHEM_SHAPE_MULTIPOLES>  (1) 
180.23
4.9
1.15
0.86
1.82
0.03
0.12
-0.11
-0.23
-0.52
-0.03
0.4
-0.12
-0.42

>  <PUBCHEM_SHAPE_SELFOVERLAP>  (1) 
343.832

>  <PUBCHEM_SHAPE_VOLUME>  (1) 
112.2

>  <PUBCHEM_COORDINATE_TYPE>  (1) 
2
5
10

$$$$
