7752
     RDKit          3D

  7  6  0  0  0  0  0  0  0  0999 V2000
    0.6890    0.4498    0.0000 O   0  0  0  0  0  0  0  0  0  0  0  0
   -0.6400   -1.4234    0.0000 O   0  0  0  0  0  0  0  0  0  0  0  0
   -1.5400    0.7149    0.0000 N   0  0  0  0  0  0  0  0  0  0  0  0
    1.8535   -0.3837    0.0000 C   0  0  0  0  0  0  0  0  0  0  0  0
    3.0875    0.4933    0.0000 C   0  0  0  0  0  0  0  0  0  0  0  0
   -0.5113   -0.2036    0.0000 C   0  0  0  0  0  0  0  0  0  0  0  0
   -2.9386    0.3526    0.0000 C   0  0  0  0  0  0  0  0  0  0  0  0
  1  4  1  0
  1  6  1  0
  2  6  2  0
  3  6  1  0
  3  7  1  0
  4  5  1  0
M  END
>  <PUBCHEM_COMPOUND_CID>  (1) 
7752

>  <PUBCHEM_CONFORMER_RMSD>  (1) 
0.4

>  <PUBCHEM_CONFORMER_DIVERSEORDER>  (1) 
1
20
12
11
15
16
19
8
7
18
6
17
14
2
13
5
3
4
9
10

>  <PUBCHEM_MMFF94_PARTIAL_CHARGES>  (1) 
7
1 -0.43
13 0.37
2 -0.57
3 -0.73
4 0.28
6 0.78
7 0.3

>  <PUBCHEM_EFFECTIVE_ROTOR_COUNT>  (1) 
3

>  <PUBCHEM_PHARMACOPHORE_FEATURES>  (1) 
2
1 2 acceptor
1 3 donor

>  <PUBCHEM_HEAVY_ATOM_COUNT>  (1) 
7

>  <PUBCHEM_ATOM_DEF_STEREO_COUNT>  (1) 
0

>  <PUBCHEM_ATOM_UDEF_STEREO_COUNT>  (1) 
0

>  <PUBCHEM_BOND_DEF_STEREO_COUNT>  (1) 
0

>  <PUBCHEM_BOND_UDEF_STEREO_COUNT>  (1) 
0

>  <PUBCHEM_ISOTOPIC_ATOM_COUNT>  (1) 
0

>  <PUBCHEM_COMPONENT_COUNT>  (1) 
1

>  <PUBCHEM_CACTVS_TAUTO_COUNT>  (1) 
2

>  <PUBCHEM_CONFORMER_ID>  (1) 
00001E4800000001

>  <PUBCHEM_MMFF94_ENERGY>  (1) 
1.4675

>  <PUBCHEM_FEATURE_SELFOVERLAP>  (1) 
10.148

>  <PUBCHEM_SHAPE_FINGERPRINT>  (1) 
16714656 1 8502654809273629281
23552423 10 10879451524663618448
29004967 10 9655283856798944909
5460574 1 18410856551260942500

>  <PUBCHEM_SHAPE_MULTIPOLES>  (1) 
127.34
4.5
0.98
0.58
0.59
0.27
0
-1.14
0
-0.12
0
0.02
-0.01
0

>  <PUBCHEM_SHAPE_SELFOVERLAP>  (1) 
227.409

>  <PUBCHEM_SHAPE_VOLUME>  (1) 
83.3

>  <PUBCHEM_COORDINATE_TYPE>  (1) 
2
5
10

$$$$
