7754
     RDKit          3D

  8  7  0  0  1  0  0  0  0  0999 V2000
    1.6067    0.9108   -1.0118 O   0  0  0  0  0  0  0  0  0  0  0  0
   -0.8584   -0.4730   -0.3213 C   0  0  0  0  0  0  0  0  0  0  0  0
   -1.2406    0.7675    0.5128 C   0  0  0  0  0  0  0  0  0  0  0  0
    0.5434   -0.9766    0.0695 C   0  0  0  0  0  0  0  0  0  0  0  0
   -1.8719   -1.6074   -0.1380 C   0  0  0  0  0  0  0  0  0  0  0  0
   -2.6150    1.3286    0.1741 C   0  0  0  0  0  0  0  0  0  0  0  0
    1.6455    0.0526   -0.1317 C   0  0  0  0  0  0  0  0  0  0  0  0
    2.7904   -0.0026    0.8464 C   0  0  0  0  0  0  0  0  0  0  0  0
  1  7  2  0
  2  3  1  0
  2  4  1  0
  2  5  1  0
  3  6  1  0
  4  7  1  0
  7  8  1  0
M  END
>  <PUBCHEM_COMPOUND_CID>  (1) 
7754

>  <PUBCHEM_CONFORMER_RMSD>  (1) 
0.6

>  <PUBCHEM_CONFORMER_DIVERSEORDER>  (1) 
3
17
7
27
23
26
22
4
19
13
21
8
15
9
14
5
16
11
12
20
25
1
18
10
2
6
24

>  <PUBCHEM_MMFF94_PARTIAL_CHARGES>  (1) 
4
1 -0.57
4 0.06
7 0.45
8 0.06

>  <PUBCHEM_EFFECTIVE_ROTOR_COUNT>  (1) 
3

>  <PUBCHEM_PHARMACOPHORE_FEATURES>  (1) 
3
1 1 acceptor
1 5 hydrophobe
1 6 hydrophobe

>  <PUBCHEM_HEAVY_ATOM_COUNT>  (1) 
8

>  <PUBCHEM_ATOM_DEF_STEREO_COUNT>  (1) 
0

>  <PUBCHEM_ATOM_UDEF_STEREO_COUNT>  (1) 
1

>  <PUBCHEM_BOND_DEF_STEREO_COUNT>  (1) 
0

>  <PUBCHEM_BOND_UDEF_STEREO_COUNT>  (1) 
0

>  <PUBCHEM_ISOTOPIC_ATOM_COUNT>  (1) 
0

>  <PUBCHEM_COMPONENT_COUNT>  (1) 
1

>  <PUBCHEM_CACTVS_TAUTO_COUNT>  (1) 
3

>  <PUBCHEM_CONFORMER_ID>  (1) 
00001E4A00000003

>  <PUBCHEM_MMFF94_ENERGY>  (1) 
6.5612

>  <PUBCHEM_FEATURE_SELFOVERLAP>  (1) 
15.224

>  <PUBCHEM_SHAPE_FINGERPRINT>  (1) 
12932741 1 17418383497177330484
12932764 1 17274821410953511446
14390081 3 17988639649462242889
20096714 4 18337400343914411703
21040471 1 18269844129106014913
23552423 10 18335143093909040838
23552449 1 18201154455142898209
24536 1 18409730681345148054
29004967 10 15267073591678368474
5084963 1 17823123674453283414

>  <PUBCHEM_SHAPE_MULTIPOLES>  (1) 
158.77
3.88
1.47
0.84
0.81
0.27
0.04
-0.94
-0.59
-1.12
0.03
0.35
-0.13
-0.27

>  <PUBCHEM_SHAPE_SELFOVERLAP>  (1) 
284.766

>  <PUBCHEM_SHAPE_VOLUME>  (1) 
103.5

>  <PUBCHEM_COORDINATE_TYPE>  (1) 
2
5
10

$$$$
