7765
     RDKit          3D

  8  7  0  0  0  0  0  0  0  0999 V2000
   -0.8614    0.3192   -0.1193 O   0  0  0  0  0  0  0  0  0  0  0  0
    1.3500   -0.5120   -0.1369 O   0  0  0  0  0  0  0  0  0  0  0  0
    0.0131   -0.7146    0.3396 C   0  0  0  0  0  0  0  0  0  0  0  0
   -0.4538   -2.0530   -0.2186 C   0  0  0  0  0  0  0  0  0  0  0  0
   -2.2097    0.1261    0.2863 C   0  0  0  0  0  0  0  0  0  0  0  0
    1.9042    0.7152    0.3190 C   0  0  0  0  0  0  0  0  0  0  0  0
   -3.0525    1.2658   -0.2452 C   0  0  0  0  0  0  0  0  0  0  0  0
    3.3101    0.8534   -0.2250 C   0  0  0  0  0  0  0  0  0  0  0  0
  1  3  1  0
  1  5  1  0
  2  3  1  0
  2  6  1  0
  3  4  1  0
  5  7  1  0
  6  8  1  0
M  END
>  <PUBCHEM_COMPOUND_CID>  (1) 
7765

>  <PUBCHEM_CONFORMER_RMSD>  (1) 
0.6

>  <PUBCHEM_CONFORMER_DIVERSEORDER>  (1) 
1
9
5
3
10
11
6
12
8
2
7
14
13
4

>  <PUBCHEM_MMFF94_PARTIAL_CHARGES>  (1) 
5
1 -0.56
2 -0.56
3 0.56
5 0.28
6 0.28

>  <PUBCHEM_EFFECTIVE_ROTOR_COUNT>  (1) 
4

>  <PUBCHEM_PHARMACOPHORE_FEATURES>  (1) 
2
1 1 acceptor
1 2 acceptor

>  <PUBCHEM_HEAVY_ATOM_COUNT>  (1) 
8

>  <PUBCHEM_ATOM_DEF_STEREO_COUNT>  (1) 
0

>  <PUBCHEM_ATOM_UDEF_STEREO_COUNT>  (1) 
0

>  <PUBCHEM_BOND_DEF_STEREO_COUNT>  (1) 
0

>  <PUBCHEM_BOND_UDEF_STEREO_COUNT>  (1) 
0

>  <PUBCHEM_ISOTOPIC_ATOM_COUNT>  (1) 
0

>  <PUBCHEM_COMPONENT_COUNT>  (1) 
1

>  <PUBCHEM_CACTVS_TAUTO_COUNT>  (1) 
1

>  <PUBCHEM_CONFORMER_ID>  (1) 
00001E5500000001

>  <PUBCHEM_MMFF94_ENERGY>  (1) 
11.0393

>  <PUBCHEM_FEATURE_SELFOVERLAP>  (1) 
10.187

>  <PUBCHEM_SHAPE_FINGERPRINT>  (1) 
14325111 11 18410012130419978081
14390081 3 18410572847349426401
20653085 51 18336558208513247296
21040471 1 18411697703304721186
23211744 41 17823134528120327683
23235685 24 18411696586618648304
23552449 1 18053381282054554794

>  <PUBCHEM_SHAPE_MULTIPOLES>  (1) 
152.9
4.74
1.65
0.66
1.02
0.82
-0.02
-3.1
0.37
-0.51
0.17
-0.01
0
0.07

>  <PUBCHEM_SHAPE_SELFOVERLAP>  (1) 
267.524

>  <PUBCHEM_SHAPE_VOLUME>  (1) 
101.5

>  <PUBCHEM_COORDINATE_TYPE>  (1) 
2
5
10

$$$$
