7766
     RDKit          3D

  8  7  0  0  0  0  0  0  0  0999 V2000
   -1.1022   -0.4379    0.0006 O   0  0  0  0  0  0  0  0  0  0  0  0
    1.1023   -0.4378    0.0006 O   0  0  0  0  0  0  0  0  0  0  0  0
    0.0000    1.5865   -0.0001 O   0  0  0  0  0  0  0  0  0  0  0  0
   -2.3611    0.2436   -0.0004 C   0  0  0  0  0  0  0  0  0  0  0  0
    2.3610    0.2436   -0.0004 C   0  0  0  0  0  0  0  0  0  0  0  0
   -3.4760   -0.7804   -0.0004 C   0  0  0  0  0  0  0  0  0  0  0  0
    3.4760   -0.7804   -0.0004 C   0  0  0  0  0  0  0  0  0  0  0  0
    0.0000    0.3629    0.0006 C   0  0  0  0  0  0  0  0  0  0  0  0
  1  4  1  0
  1  8  1  0
  2  5  1  0
  2  8  1  0
  3  8  2  0
  4  6  1  0
  5  7  1  0
M  END
>  <PUBCHEM_COMPOUND_CID>  (1) 
7766

>  <PUBCHEM_CONFORMER_RMSD>  (1) 
0.6

>  <PUBCHEM_CONFORMER_DIVERSEORDER>  (1) 
1
11
4
9
10
3
12
5
8
7
2
6

>  <PUBCHEM_MMFF94_PARTIAL_CHARGES>  (1) 
6
1 -0.43
2 -0.43
3 -0.57
4 0.28
5 0.28
8 0.87

>  <PUBCHEM_EFFECTIVE_ROTOR_COUNT>  (1) 
4

>  <PUBCHEM_PHARMACOPHORE_FEATURES>  (1) 
0

>  <PUBCHEM_HEAVY_ATOM_COUNT>  (1) 
8

>  <PUBCHEM_ATOM_DEF_STEREO_COUNT>  (1) 
0

>  <PUBCHEM_ATOM_UDEF_STEREO_COUNT>  (1) 
0

>  <PUBCHEM_BOND_DEF_STEREO_COUNT>  (1) 
0

>  <PUBCHEM_BOND_UDEF_STEREO_COUNT>  (1) 
0

>  <PUBCHEM_ISOTOPIC_ATOM_COUNT>  (1) 
0

>  <PUBCHEM_COMPONENT_COUNT>  (1) 
1

>  <PUBCHEM_CACTVS_TAUTO_COUNT>  (1) 
1

>  <PUBCHEM_CONFORMER_ID>  (1) 
00001E5600000001

>  <PUBCHEM_MMFF94_ENERGY>  (1) 
5.0904

>  <PUBCHEM_FEATURE_SELFOVERLAP>  (1) 
0

>  <PUBCHEM_SHAPE_FINGERPRINT>  (1) 
11062470 55 18410011039508827877
14325111 11 18410573989456987426
23552423 10 18043253435749016770
29004967 10 18411140246572156561
5460574 1 9295290538466545539

>  <PUBCHEM_SHAPE_MULTIPOLES>  (1) 
147.03
5.77
1.07
0.58
0
0.27
0
-2.23
0
0
0
0
-0.01
0

>  <PUBCHEM_SHAPE_SELFOVERLAP>  (1) 
265.006

>  <PUBCHEM_SHAPE_VOLUME>  (1) 
95.1

>  <PUBCHEM_COORDINATE_TYPE>  (1) 
2
5
10

$$$$
