7767
     RDKit          3D

  8  7  0  0  0  0  0  0  0  0999 V2000
    3.0327   -1.2672   -0.1976 O   0  0  0  0  0  0  0  0  0  0  0  0
   -3.2865   -0.8721   -0.1504 O   0  0  0  0  0  0  0  0  0  0  0  0
   -0.0092    0.7584    0.2809 N   0  0  0  0  0  0  0  0  0  0  0  0
    0.8389   -0.3149   -0.2363 C   0  0  0  0  0  0  0  0  0  0  0  0
   -1.3886    0.5835   -0.1725 C   0  0  0  0  0  0  0  0  0  0  0  0
    0.5047    2.0622   -0.1371 C   0  0  0  0  0  0  0  0  0  0  0  0
    2.2504   -0.1974    0.3163 C   0  0  0  0  0  0  0  0  0  0  0  0
   -1.9424   -0.7525    0.2967 C   0  0  0  0  0  0  0  0  0  0  0  0
  1  7  1  0
  2  8  1  0
  3  4  1  0
  3  5  1  0
  3  6  1  0
  4  7  1  0
  5  8  1  0
M  END
>  <PUBCHEM_COMPOUND_CID>  (1) 
7767

>  <PUBCHEM_CONFORMER_RMSD>  (1) 
0.6

>  <PUBCHEM_CONFORMER_DIVERSEORDER>  (1) 
2
27
33
21
11
30
16
17
1
29
24
34
14
8
26
4
9
7
18
19
28
12
31
5
3
6
32
10
20
22
15
25
23
13

>  <PUBCHEM_MMFF94_PARTIAL_CHARGES>  (1) 
10
1 -0.68
2 -0.68
20 0.4
21 0.4
3 -0.81
4 0.27
5 0.27
6 0.27
7 0.28
8 0.28

>  <PUBCHEM_EFFECTIVE_ROTOR_COUNT>  (1) 
4

>  <PUBCHEM_PHARMACOPHORE_FEATURES>  (1) 
5
1 1 acceptor
1 1 donor
1 2 acceptor
1 2 donor
1 3 cation

>  <PUBCHEM_HEAVY_ATOM_COUNT>  (1) 
8

>  <PUBCHEM_ATOM_DEF_STEREO_COUNT>  (1) 
0

>  <PUBCHEM_ATOM_UDEF_STEREO_COUNT>  (1) 
0

>  <PUBCHEM_BOND_DEF_STEREO_COUNT>  (1) 
0

>  <PUBCHEM_BOND_UDEF_STEREO_COUNT>  (1) 
0

>  <PUBCHEM_ISOTOPIC_ATOM_COUNT>  (1) 
0

>  <PUBCHEM_COMPONENT_COUNT>  (1) 
1

>  <PUBCHEM_CACTVS_TAUTO_COUNT>  (1) 
1

>  <PUBCHEM_CONFORMER_ID>  (1) 
00001E5700000002

>  <PUBCHEM_MMFF94_ENERGY>  (1) 
11.9468

>  <PUBCHEM_FEATURE_SELFOVERLAP>  (1) 
25.371

>  <PUBCHEM_SHAPE_FINGERPRINT>  (1) 
10857977 72 18341317938467660288
14128692 85 18335990830226939316
14390081 3 8646773291758329587
20653085 51 7925622349741998190
23552423 10 18187370870198055558
23552449 1 18193835947119798996
23552449 11 18340769363664406793
29004967 10 18412543227741128312

>  <PUBCHEM_SHAPE_MULTIPOLES>  (1) 
147.92
4.2
1.61
0.64
0.68
0.83
-0.01
-2.6
0.11
-0.41
0.08
-0.02
0.01
0.09

>  <PUBCHEM_SHAPE_SELFOVERLAP>  (1) 
262.124

>  <PUBCHEM_SHAPE_VOLUME>  (1) 
98.2

>  <PUBCHEM_COORDINATE_TYPE>  (1) 
2
5
10

$$$$
