7775
     RDKit          3D

 12 11  0  0  0  0  0  0  0  0999 V2000
    1.4131    0.1681   -0.2368 O   0  0  0  0  0  0  0  0  0  0  0  0
    0.2477   -1.7295    0.3641 O   0  0  0  0  0  0  0  0  0  0  0  0
   -2.2485   -0.3871    0.0735 C   0  0  0  0  0  0  0  0  0  0  0  0
   -3.4628    0.5099   -0.1860 C   0  0  0  0  0  0  0  0  0  0  0  0
    3.8254    0.4144   -0.3133 C   0  0  0  0  0  0  0  0  0  0  0  0
   -0.9270    0.3109   -0.2476 C   0  0  0  0  0  0  0  0  0  0  0  0
   -4.7655   -0.2036    0.1761 C   0  0  0  0  0  0  0  0  0  0  0  0
    2.6488   -0.5199   -0.0178 C   0  0  0  0  0  0  0  0  0  0  0  0
    3.8089    1.6389    0.6043 C   0  0  0  0  0  0  0  0  0  0  0  0
    5.1487   -0.3350   -0.1744 C   0  0  0  0  0  0  0  0  0  0  0  0
    0.2831   -0.5640   -0.0055 C   0  0  0  0  0  0  0  0  0  0  0  0
   -5.9719    0.6969   -0.0367 C   0  0  0  0  0  0  0  0  0  0  0  0
  1  8  1  0
  1 11  1  0
  2 11  2  0
  3  4  1  0
  3  6  1  0
  4  7  1  0
  5  8  1  0
  5  9  1  0
  5 10  1  0
  6 11  1  0
  7 12  1  0
M  END
>  <PUBCHEM_COMPOUND_CID>  (1) 
7775

>  <PUBCHEM_CONFORMER_RMSD>  (1) 
0.8

>  <PUBCHEM_CONFORMER_DIVERSEORDER>  (1) 
1
76
66
41
5
39
26
75
22
3
29
53
86
23
93
27
64
35
2
95
57
82
13
88
77
55
28
78
60
42
10
31
4
69
37
52
18
85
83
33
34
81
40
67
91
49
51
89
7
63
45
74
30
54
32
90
36
61
9
58
56
11
47
6
62
24
87
20
94
17
12
65
72
71
25
84
48
50
68
79
44
19
46
8
73
15
80
38
59
92
70
16
21
14
43

>  <PUBCHEM_MMFF94_PARTIAL_CHARGES>  (1) 
5
1 -0.43
11 0.66
2 -0.57
6 0.06
8 0.28

>  <PUBCHEM_EFFECTIVE_ROTOR_COUNT>  (1) 
7

>  <PUBCHEM_PHARMACOPHORE_FEATURES>  (1) 
4
1 12 hydrophobe
1 2 acceptor
3 5 9 10 hydrophobe
4 3 4 6 7 hydrophobe

>  <PUBCHEM_HEAVY_ATOM_COUNT>  (1) 
12

>  <PUBCHEM_ATOM_DEF_STEREO_COUNT>  (1) 
0

>  <PUBCHEM_ATOM_UDEF_STEREO_COUNT>  (1) 
0

>  <PUBCHEM_BOND_DEF_STEREO_COUNT>  (1) 
0

>  <PUBCHEM_BOND_UDEF_STEREO_COUNT>  (1) 
0

>  <PUBCHEM_ISOTOPIC_ATOM_COUNT>  (1) 
0

>  <PUBCHEM_COMPONENT_COUNT>  (1) 
1

>  <PUBCHEM_CACTVS_TAUTO_COUNT>  (1) 
1

>  <PUBCHEM_CONFORMER_ID>  (1) 
00001E5F00000001

>  <PUBCHEM_MMFF94_ENERGY>  (1) 
4.6

>  <PUBCHEM_FEATURE_SELFOVERLAP>  (1) 
20.298

>  <PUBCHEM_SHAPE_FINGERPRINT>  (1) 
11287383 113 17846217795260975711
114248 4 13398629450482850457
12714333 28 16988841678868225769
12815109 37 9583517611740914436
13081056 2 18411417310675859724
13533116 47 17604140428997280066
14123238 8 12179845004701994053
14251718 22 16486969614124700877
14252887 29 8286206071590773508
15242439 84 18410860966650866110
17834072 33 17775280599608989789
17834072 8 18272095989497596614
17834076 25 17457783383988455949
18186145 218 18411971482021738916
187816 3 14117801323040331542
20605781 2 18411418427282759193
20645477 70 18059580118391258662
20767249 13 9727634998813691164
212847 35 18408887356449006572
23402539 116 18201433692721131815
23402655 69 18060137669543920948
23557571 272 17240765017451129047
366044 4 18407760343686821850
4047638 21 18413388757015866960
42 15 11891329846649220289
42788 4 18413108359975759773
449060 50 18409449176762439831
522135 26 18272933813073582806

>  <PUBCHEM_SHAPE_MULTIPOLES>  (1) 
235.22
12.89
1.19
0.67
7.83
0.06
-0.01
3.22
0.08
-0.77
-0.2
-0.11
0.04
0.35

>  <PUBCHEM_SHAPE_SELFOVERLAP>  (1) 
428.184

>  <PUBCHEM_SHAPE_VOLUME>  (1) 
151

>  <PUBCHEM_COORDINATE_TYPE>  (1) 
2
5
10

$$$$
