7792
     RDKit          3D

 11 10  0  0  1  0  0  0  0  0999 V2000
   -3.4924    2.1321   -0.6033 O   0  0  0  0  0  0  0  0  0  0  0  0
   -1.8493   -1.1322    0.4404 C   0  0  0  0  0  0  0  0  0  0  0  0
   -0.5108   -0.6367    1.0266 C   0  0  0  0  0  0  0  0  0  0  0  0
    0.5624   -0.2785   -0.0082 C   0  0  0  0  0  0  0  0  0  0  0  0
    1.8295    0.2488    0.6757 C   0  0  0  0  0  0  0  0  0  0  0  0
    2.9732    0.5604   -0.3074 C   0  0  0  0  0  0  0  0  0  0  0  0
   -2.5923   -0.0968   -0.4224 C   0  0  0  0  0  0  0  0  0  0  0  0
   -1.6633   -2.4291   -0.3542 C   0  0  0  0  0  0  0  0  0  0  0  0
   -2.8015    1.2459    0.2693 C   0  0  0  0  0  0  0  0  0  0  0  0
    3.3178   -0.6930   -1.1156 C   0  0  0  0  0  0  0  0  0  0  0  0
    4.2267    1.0790    0.3989 C   0  0  0  0  0  0  0  0  0  0  0  0
  1  9  1  0
  2  3  1  0
  2  7  1  0
  2  8  1  0
  3  4  1  0
  4  5  1  0
  5  6  1  0
  6 10  1  0
  6 11  1  0
  7  9  1  0
M  END
>  <PUBCHEM_COMPOUND_CID>  (1) 
7792

>  <PUBCHEM_CONFORMER_RMSD>  (1) 
0.6

>  <PUBCHEM_CONFORMER_DIVERSEORDER>  (1) 
1
31
37
52
64
10
30
25
59
13
51
56
60
33
41
39
38
35
32
44
58
12
27
61
43
7
11
42
62
49
54
23
63
50
34
8
36
55
40
48
47
46
5
53
19
45
26
14
24
57
28
18
15
20
17
3
29
16
4
22
6
9
2
21

>  <PUBCHEM_MMFF94_PARTIAL_CHARGES>  (1) 
3
1 -0.68
33 0.4
9 0.28

>  <PUBCHEM_EFFECTIVE_ROTOR_COUNT>  (1) 
6

>  <PUBCHEM_PHARMACOPHORE_FEATURES>  (1) 
6
1 1 acceptor
1 1 donor
1 8 hydrophobe
3 2 3 7 hydrophobe
3 4 5 6 hydrophobe
3 6 10 11 hydrophobe

>  <PUBCHEM_HEAVY_ATOM_COUNT>  (1) 
11

>  <PUBCHEM_ATOM_DEF_STEREO_COUNT>  (1) 
0

>  <PUBCHEM_ATOM_UDEF_STEREO_COUNT>  (1) 
1

>  <PUBCHEM_BOND_DEF_STEREO_COUNT>  (1) 
0

>  <PUBCHEM_BOND_UDEF_STEREO_COUNT>  (1) 
0

>  <PUBCHEM_ISOTOPIC_ATOM_COUNT>  (1) 
0

>  <PUBCHEM_COMPONENT_COUNT>  (1) 
1

>  <PUBCHEM_CACTVS_TAUTO_COUNT>  (1) 
1

>  <PUBCHEM_CONFORMER_ID>  (1) 
00001E7000000001

>  <PUBCHEM_MMFF94_ENERGY>  (1) 
10.5304

>  <PUBCHEM_FEATURE_SELFOVERLAP>  (1) 
31.105

>  <PUBCHEM_SHAPE_FINGERPRINT>  (1) 
12138202 97 18344144791347352191
12162725 195 18042405905710335300
12500047 106 18342173380120982934
12716758 59 18342738533092076859
12932764 1 18340215184182098642
14123255 52 18263358093135101781
14123260 362 17968105234657868540
15775835 57 18114460063684956921
1741750 31 18411417276442416841
17834072 32 18335137536422138373
18186145 218 18200320922197029360
20279233 1 18131355236867058934
20645477 56 18341054098384177777
20645477 70 17203058408827924758
20653085 51 18335711532798530881
20671657 1 18118960295831289691
20828058 34 18410576141441636513
21524375 3 18189045396579686377
22169311 21 17989209269890258270
22926399 65 18409165506709697008
22959321 105 18129945718784139026
22959321 28 15357699660560274526
23402539 116 18339915034951400607
23557571 272 18269845362020241204
23559900 14 18202567255456278658
3248919 1 17168426077364889922
42627469 27 17167579393107620576
6333449 129 18412262860971494449
6430166 295 18261671463550961496
93112 12 18342745121793169046

>  <PUBCHEM_SHAPE_MULTIPOLES>  (1) 
220.51
7.24
1.95
0.96
4.6
0.19
0
-3.14
1.14
-2.2
0.34
0.23
0.08
0.72

>  <PUBCHEM_SHAPE_SELFOVERLAP>  (1) 
394.474

>  <PUBCHEM_SHAPE_VOLUME>  (1) 
144

>  <PUBCHEM_COORDINATE_TYPE>  (1) 
2
5
10

$$$$
