7802
     RDKit          3D

  8  7  0  0  0  0  0  0  0  0999 V2000
   -1.1526   -1.3112    0.0139 O   0  0  0  0  0  0  0  0  0  0  0  0
    1.4193   -0.2313   -0.0312 C   0  0  0  0  0  0  0  0  0  0  0  0
    0.1999    0.6873    0.0048 C   0  0  0  0  0  0  0  0  0  0  0  0
    2.7202    0.5695    0.0037 C   0  0  0  0  0  0  0  0  0  0  0  0
   -1.1120   -0.0820    0.0093 C   0  0  0  0  0  0  0  0  0  0  0  0
   -2.3702    0.7705    0.0097 C   0  0  0  0  0  0  0  0  0  0  0  0
    3.9362   -0.3432    0.0060 C   0  0  0  0  0  0  0  0  0  0  0  0
   -3.6408   -0.0595   -0.0162 C   0  0  0  0  0  0  0  0  0  0  0  0
  1  5  2  0
  2  3  1  0
  2  4  1  0
  3  5  1  0
  4  7  1  0
  5  6  1  0
  6  8  1  0
M  END
>  <PUBCHEM_COMPOUND_CID>  (1) 
7802

>  <PUBCHEM_CONFORMER_RMSD>  (1) 
0.6

>  <PUBCHEM_CONFORMER_DIVERSEORDER>  (1) 
1
59
6
48
58
45
57
3
55
49
43
53
11
41
51
47
37
35
19
39
4
56
36
54
44
33
27
16
40
5
52
38
34
29
2
42
31
7
26
20
50
18
12
13
10
8
46
32
24
28
22
21
25
9
17
30
15
23
14

>  <PUBCHEM_MMFF94_PARTIAL_CHARGES>  (1) 
4
1 -0.57
3 0.06
5 0.45
6 0.06

>  <PUBCHEM_EFFECTIVE_ROTOR_COUNT>  (1) 
4

>  <PUBCHEM_PHARMACOPHORE_FEATURES>  (1) 
3
1 1 acceptor
1 7 hydrophobe
1 8 hydrophobe

>  <PUBCHEM_HEAVY_ATOM_COUNT>  (1) 
8

>  <PUBCHEM_ATOM_DEF_STEREO_COUNT>  (1) 
0

>  <PUBCHEM_ATOM_UDEF_STEREO_COUNT>  (1) 
0

>  <PUBCHEM_BOND_DEF_STEREO_COUNT>  (1) 
0

>  <PUBCHEM_BOND_UDEF_STEREO_COUNT>  (1) 
0

>  <PUBCHEM_ISOTOPIC_ATOM_COUNT>  (1) 
0

>  <PUBCHEM_COMPONENT_COUNT>  (1) 
1

>  <PUBCHEM_CACTVS_TAUTO_COUNT>  (1) 
3

>  <PUBCHEM_CONFORMER_ID>  (1) 
00001E7A00000001

>  <PUBCHEM_MMFF94_ENERGY>  (1) 
-1.166

>  <PUBCHEM_FEATURE_SELFOVERLAP>  (1) 
15.223

>  <PUBCHEM_SHAPE_FINGERPRINT>  (1) 
11062470 55 13614521852789182825
12932764 1 16805590504284043516
14325111 11 18410856538339123845
14390081 3 18272367576905970048
190213 19 17530685411446360072
20719005 15 18410856563950613602
23235685 24 18413384328324323047
23402539 116 17989197132175568949
3248919 1 16916799504079401440
5460574 1 9223230745357986725

>  <PUBCHEM_SHAPE_MULTIPOLES>  (1) 
158.77
6.57
0.97
0.61
1.87
0.1
0
0.16
0.01
-0.17
0
0.01
-0.02
0

>  <PUBCHEM_SHAPE_SELFOVERLAP>  (1) 
281.893

>  <PUBCHEM_SHAPE_VOLUME>  (1) 
103.9

>  <PUBCHEM_COORDINATE_TYPE>  (1) 
2
5
10

$$$$
