7806
     RDKit          3D

  8  8  0  0  0  0  0  0  0  0999 V2000
   -3.2636    0.0000    0.0000 Br  0  0  0  0  0  0  0  0  0  0  0  0
    3.1368   -0.0001    0.0000 Cl  0  0  0  0  0  0  0  0  0  0  0  0
   -1.3737    0.0000   -0.0001 C   0  0  0  0  0  0  0  0  0  0  0  0
   -0.6763   -1.2079    0.0001 C   0  0  0  0  0  0  0  0  0  0  0  0
   -0.6763    1.2080    0.0001 C   0  0  0  0  0  0  0  0  0  0  0  0
    0.7186   -1.2079    0.0000 C   0  0  0  0  0  0  0  0  0  0  0  0
    0.7186    1.2080    0.0000 C   0  0  0  0  0  0  0  0  0  0  0  0
    1.4161    0.0000   -0.0001 C   0  0  0  0  0  0  0  0  0  0  0  0
  1  3  1  0
  2  8  1  0
  3  4  2  0
  3  5  1  0
  4  6  1  0
  5  7  2  0
  6  8  2  0
  7  8  1  0
M  END
>  <PUBCHEM_COMPOUND_CID>  (1) 
7806

>  <PUBCHEM_CONFORMER_RMSD>  (1) 
0.4

>  <PUBCHEM_CONFORMER_DIVERSEORDER>  (1) 
1

>  <PUBCHEM_MMFF94_PARTIAL_CHARGES>  (1) 
12
1 -0.11
10 0.15
11 0.15
12 0.15
2 -0.18
3 0.11
4 -0.15
5 -0.15
6 -0.15
7 -0.15
8 0.18
9 0.15

>  <PUBCHEM_EFFECTIVE_ROTOR_COUNT>  (1) 
0

>  <PUBCHEM_PHARMACOPHORE_FEATURES>  (1) 
2
1 1 hydrophobe
6 3 4 5 6 7 8 rings

>  <PUBCHEM_HEAVY_ATOM_COUNT>  (1) 
8

>  <PUBCHEM_ATOM_DEF_STEREO_COUNT>  (1) 
0

>  <PUBCHEM_ATOM_UDEF_STEREO_COUNT>  (1) 
0

>  <PUBCHEM_BOND_DEF_STEREO_COUNT>  (1) 
0

>  <PUBCHEM_BOND_UDEF_STEREO_COUNT>  (1) 
0

>  <PUBCHEM_ISOTOPIC_ATOM_COUNT>  (1) 
0

>  <PUBCHEM_COMPONENT_COUNT>  (1) 
1

>  <PUBCHEM_CACTVS_TAUTO_COUNT>  (1) 
1

>  <PUBCHEM_CONFORMER_ID>  (1) 
00001E7E00000001

>  <PUBCHEM_MMFF94_ENERGY>  (1) 
14.9522

>  <PUBCHEM_FEATURE_SELFOVERLAP>  (1) 
10.148

>  <PUBCHEM_SHAPE_FINGERPRINT>  (1) 
14325111 11 18410855455875515937
15310529 11 16588013606887257252
16714656 1 18410857663699579286
16945 1 18410575088994969479
193761 8 17690280404617640476
21040471 1 18194401319149574821
21293036 1 18408887351515443708
23235685 24 18410570690922136581
23402655 69 18195790896591195461
23552423 10 18044093690413305108
2748010 2 18122344850261112279
29004967 10 18334019375955886785
5084963 1 18343302569545454481

>  <PUBCHEM_SHAPE_MULTIPOLES>  (1) 
172.45
4.25
1.34
0.64
0.55
0
0
0
0
-0.03
0
0.04
0
0

>  <PUBCHEM_SHAPE_SELFOVERLAP>  (1) 
332.473

>  <PUBCHEM_SHAPE_VOLUME>  (1) 
108.2

>  <PUBCHEM_COORDINATE_TYPE>  (1) 
2
5
10

$$$$
