7810
     RDKit          3D

  8  8  0  0  0  0  0  0  0  0999 V2000
   -3.0871    0.0000    0.0002 Cl  0  0  0  0  0  0  0  0  0  0  0  0
    1.4236    0.0000   -0.0003 C   0  0  0  0  0  0  0  0  0  0  0  0
    0.7261   -1.2079   -0.0001 C   0  0  0  0  0  0  0  0  0  0  0  0
    0.7261    1.2080   -0.0001 C   0  0  0  0  0  0  0  0  0  0  0  0
    2.9150    0.0000    0.0004 C   0  0  0  0  0  0  0  0  0  0  0  0
   -0.6688   -1.2080    0.0000 C   0  0  0  0  0  0  0  0  0  0  0  0
   -0.6688    1.2079    0.0000 C   0  0  0  0  0  0  0  0  0  0  0  0
   -1.3662    0.0000   -0.0001 C   0  0  0  0  0  0  0  0  0  0  0  0
  1  8  1  0
  2  3  2  0
  2  4  1  0
  2  5  1  0
  3  6  1  0
  4  7  2  0
  6  8  2  0
  7  8  1  0
M  END
>  <PUBCHEM_COMPOUND_CID>  (1) 
7810

>  <PUBCHEM_CONFORMER_RMSD>  (1) 
0.4

>  <PUBCHEM_CONFORMER_DIVERSEORDER>  (1) 
1

>  <PUBCHEM_MMFF94_PARTIAL_CHARGES>  (1) 
12
1 -0.18
10 0.15
14 0.15
15 0.15
2 -0.14
3 -0.15
4 -0.15
5 0.14
6 -0.15
7 -0.15
8 0.18
9 0.15

>  <PUBCHEM_EFFECTIVE_ROTOR_COUNT>  (1) 
0

>  <PUBCHEM_PHARMACOPHORE_FEATURES>  (1) 
1
6 2 3 4 6 7 8 rings

>  <PUBCHEM_HEAVY_ATOM_COUNT>  (1) 
8

>  <PUBCHEM_ATOM_DEF_STEREO_COUNT>  (1) 
0

>  <PUBCHEM_ATOM_UDEF_STEREO_COUNT>  (1) 
0

>  <PUBCHEM_BOND_DEF_STEREO_COUNT>  (1) 
0

>  <PUBCHEM_BOND_UDEF_STEREO_COUNT>  (1) 
0

>  <PUBCHEM_ISOTOPIC_ATOM_COUNT>  (1) 
0

>  <PUBCHEM_COMPONENT_COUNT>  (1) 
1

>  <PUBCHEM_CACTVS_TAUTO_COUNT>  (1) 
1

>  <PUBCHEM_CONFORMER_ID>  (1) 
00001E8200000001

>  <PUBCHEM_MMFF94_ENERGY>  (1) 
16.5606

>  <PUBCHEM_FEATURE_SELFOVERLAP>  (1) 
5.074

>  <PUBCHEM_SHAPE_FINGERPRINT>  (1) 
14325111 11 18410855464476013025
15310529 11 16660353775434629148
16714656 1 18410857663662649534
16945 1 18410855464423129094
193761 8 17617941331207827271
21040471 1 18266458895896766341
23235685 24 18410570690911593580
23402655 69 18195227946627237661
23552423 10 18044375161047588678
2748010 2 18122626325221998684
29004967 10 18333456430202500225
5084963 1 18343865510893064960

>  <PUBCHEM_SHAPE_MULTIPOLES>  (1) 
166.51
3.68
1.34
0.62
0.57
0
0
0
0
-0.03
0
0.02
0
0

>  <PUBCHEM_SHAPE_SELFOVERLAP>  (1) 
333.013

>  <PUBCHEM_SHAPE_VOLUME>  (1) 
95.4

>  <PUBCHEM_COORDINATE_TYPE>  (1) 
2
5
10

$$$$
