7815
     RDKit          3D

  8  8  0  0  0  0  0  0  0  0999 V2000
   -3.1230   -0.0001   -0.0015 Cl  0  0  0  0  0  0  0  0  0  0  0  0
    3.1693   -0.0001   -0.0007 S   0  0  0  0  0  0  0  0  0  0  0  0
    1.3872   -0.0002   -0.0003 C   0  0  0  0  0  0  0  0  0  0  0  0
    0.6895   -1.2080    0.0001 C   0  0  0  0  0  0  0  0  0  0  0  0
    0.6899    1.2079    0.0001 C   0  0  0  0  0  0  0  0  0  0  0  0
   -0.7054   -1.2078    0.0007 C   0  0  0  0  0  0  0  0  0  0  0  0
   -0.7050    1.2081    0.0007 C   0  0  0  0  0  0  0  0  0  0  0  0
   -1.4026    0.0002    0.0009 C   0  0  0  0  0  0  0  0  0  0  0  0
  1  8  1  0
  2  3  1  0
  3  4  2  0
  3  5  1  0
  4  6  1  0
  5  7  2  0
  6  8  2  0
  7  8  1  0
M  END
>  <PUBCHEM_COMPOUND_CID>  (1) 
7815

>  <PUBCHEM_CONFORMER_RMSD>  (1) 
0.4

>  <PUBCHEM_CONFORMER_DIVERSEORDER>  (1) 
1

>  <PUBCHEM_MMFF94_PARTIAL_CHARGES>  (1) 
13
1 -0.18
10 0.15
11 0.15
12 0.15
13 0.18
2 -0.28
3 0.1
4 -0.15
5 -0.15
6 -0.15
7 -0.15
8 0.18
9 0.15

>  <PUBCHEM_EFFECTIVE_ROTOR_COUNT>  (1) 
0

>  <PUBCHEM_PHARMACOPHORE_FEATURES>  (1) 
1
6 3 4 5 6 7 8 rings

>  <PUBCHEM_HEAVY_ATOM_COUNT>  (1) 
8

>  <PUBCHEM_ATOM_DEF_STEREO_COUNT>  (1) 
0

>  <PUBCHEM_ATOM_UDEF_STEREO_COUNT>  (1) 
0

>  <PUBCHEM_BOND_DEF_STEREO_COUNT>  (1) 
0

>  <PUBCHEM_BOND_UDEF_STEREO_COUNT>  (1) 
0

>  <PUBCHEM_ISOTOPIC_ATOM_COUNT>  (1) 
0

>  <PUBCHEM_COMPONENT_COUNT>  (1) 
1

>  <PUBCHEM_CACTVS_TAUTO_COUNT>  (1) 
2

>  <PUBCHEM_CONFORMER_ID>  (1) 
00001E8700000001

>  <PUBCHEM_MMFF94_ENERGY>  (1) 
15.8736

>  <PUBCHEM_FEATURE_SELFOVERLAP>  (1) 
5.074

>  <PUBCHEM_SHAPE_FINGERPRINT>  (1) 
14325111 11 18410856555381875456
15310529 11 16588013606934736512
16714656 1 18410857663710128790
16945 1 18410575088979145222
193761 8 17618221710988963456
21040471 1 18266460004114457697
21293036 1 18409167726996337852
23235685 24 18410570686621888032
23402655 69 18195509417309000501
23552423 10 18044093690439691860
2748010 2 18122343750744209750
29004967 10 18333737900931709865
5084963 1 18272369775897453640

>  <PUBCHEM_SHAPE_MULTIPOLES>  (1) 
170.36
4.06
1.34
0.63
0.21
0
0
0
0
-0.01
0
0.02
0
0

>  <PUBCHEM_SHAPE_SELFOVERLAP>  (1) 
331.793

>  <PUBCHEM_SHAPE_VOLUME>  (1) 
103.1

>  <PUBCHEM_COORDINATE_TYPE>  (1) 
2
5
10

$$$$
