7823
     RDKit          3D

  9  8  0  0  1  0  0  0  0  0999 V2000
    1.7862    1.3601   -0.3569 O   0  0  0  0  0  0  0  0  0  0  0  0
    4.1181   -0.1251    0.2374 O   0  0  0  0  0  0  0  0  0  0  0  0
   -4.5547   -0.2544   -0.1265 O   0  0  0  0  0  0  0  0  0  0  0  0
    0.3756   -0.5812   -0.1632 C   0  0  0  0  0  0  0  0  0  0  0  0
   -0.8310    0.2782    0.2335 C   0  0  0  0  0  0  0  0  0  0  0  0
    1.7027    0.0693    0.2447 C   0  0  0  0  0  0  0  0  0  0  0  0
   -2.1476   -0.4038   -0.1518 C   0  0  0  0  0  0  0  0  0  0  0  0
    2.9148   -0.7585   -0.1792 C   0  0  0  0  0  0  0  0  0  0  0  0
   -3.3641    0.4155    0.2621 C   0  0  0  0  0  0  0  0  0  0  0  0
  1  6  1  0
  2  8  1  0
  3  9  1  0
  4  5  1  0
  4  6  1  0
  5  7  1  0
  6  8  1  0
  7  9  1  0
M  END
>  <PUBCHEM_COMPOUND_CID>  (1) 
7823

>  <PUBCHEM_CONFORMER_RMSD>  (1) 
0.6

>  <PUBCHEM_CONFORMER_DIVERSEORDER>  (1) 
1
82
107
33
103
115
54
6
116
94
25
109
18
64
96
86
100
60
111
41
52
3
113
39
90
85
67
30
101
80
44
32
114
7
117
70
71
110
20
5
105
102
2
95
21
81
112
14
37
9
98
12
16
45
108
87
106
63
43
28
55
27
29
97
89
99
47
74
10
78
26
38
50
104
22
75
83
51
61
23
77
35
19
17
92
72
11
66
53
4
68
93
8
42
62
84
57
69
48
65
88
91
56
13
15
76
59
34
73
40
79
36
24
46
49
58
31

>  <PUBCHEM_MMFF94_PARTIAL_CHARGES>  (1) 
9
1 -0.68
2 -0.68
21 0.4
22 0.4
23 0.4
3 -0.68
6 0.28
8 0.28
9 0.28

>  <PUBCHEM_EFFECTIVE_ROTOR_COUNT>  (1) 
5

>  <PUBCHEM_PHARMACOPHORE_FEATURES>  (1) 
6
1 1 acceptor
1 1 donor
1 2 acceptor
1 2 donor
1 3 acceptor
1 3 donor

>  <PUBCHEM_HEAVY_ATOM_COUNT>  (1) 
9

>  <PUBCHEM_ATOM_DEF_STEREO_COUNT>  (1) 
0

>  <PUBCHEM_ATOM_UDEF_STEREO_COUNT>  (1) 
1

>  <PUBCHEM_BOND_DEF_STEREO_COUNT>  (1) 
0

>  <PUBCHEM_BOND_UDEF_STEREO_COUNT>  (1) 
0

>  <PUBCHEM_ISOTOPIC_ATOM_COUNT>  (1) 
0

>  <PUBCHEM_COMPONENT_COUNT>  (1) 
1

>  <PUBCHEM_CACTVS_TAUTO_COUNT>  (1) 
1

>  <PUBCHEM_CONFORMER_ID>  (1) 
00001E8F00000001

>  <PUBCHEM_MMFF94_ENERGY>  (1) 
7.4275

>  <PUBCHEM_FEATURE_SELFOVERLAP>  (1) 
30.454

>  <PUBCHEM_SHAPE_FINGERPRINT>  (1) 
11062470 55 13901905609250851803
12932764 1 16877929573124660795
14325111 11 18411420639465067307
17834076 25 17775002401787245376
190213 19 18201720648065568771
20719005 15 18413670218970642547
23402539 116 17774995770331587557

>  <PUBCHEM_SHAPE_MULTIPOLES>  (1) 
167.61
7.63
0.91
0.63
3
0.15
-0.01
-0.5
-0.18
-0.33
0.08
-0.02
0.01
-0.13

>  <PUBCHEM_SHAPE_SELFOVERLAP>  (1) 
298.285

>  <PUBCHEM_SHAPE_VOLUME>  (1) 
109

>  <PUBCHEM_COORDINATE_TYPE>  (1) 
2
5
10

$$$$
