7842
     RDKit          3D

  4  3  0  0  0  0  0  0  0  0999 V2000
    1.9947    0.5315    0.0000 Br  0  0  0  0  0  0  0  0  0  0  0  0
    0.5644   -0.7889    0.0000 C   0  0  0  0  0  0  0  0  0  0  0  0
   -0.7408   -0.1362    0.0001 C   0  0  0  0  0  0  0  0  0  0  0  0
   -1.8182    0.3937   -0.0001 C   0  0  0  0  0  0  0  0  0  0  0  0
  1  2  1  0
  2  3  1  0
  3  4  3  0
M  END
>  <PUBCHEM_COMPOUND_CID>  (1) 
7842

>  <PUBCHEM_CONFORMER_RMSD>  (1) 
0.4

>  <PUBCHEM_CONFORMER_DIVERSEORDER>  (1) 
1

>  <PUBCHEM_MMFF94_PARTIAL_CHARGES>  (1) 
5
1 -0.23
2 0.43
3 -0.2
4 -0.18
7 0.18

>  <PUBCHEM_EFFECTIVE_ROTOR_COUNT>  (1) 
0

>  <PUBCHEM_PHARMACOPHORE_FEATURES>  (1) 
2
1 1 hydrophobe
1 4 hydrophobe

>  <PUBCHEM_HEAVY_ATOM_COUNT>  (1) 
4

>  <PUBCHEM_ATOM_DEF_STEREO_COUNT>  (1) 
0

>  <PUBCHEM_ATOM_UDEF_STEREO_COUNT>  (1) 
0

>  <PUBCHEM_BOND_DEF_STEREO_COUNT>  (1) 
0

>  <PUBCHEM_BOND_UDEF_STEREO_COUNT>  (1) 
0

>  <PUBCHEM_ISOTOPIC_ATOM_COUNT>  (1) 
0

>  <PUBCHEM_COMPONENT_COUNT>  (1) 
1

>  <PUBCHEM_CACTVS_TAUTO_COUNT>  (1) 
1

>  <PUBCHEM_CONFORMER_ID>  (1) 
00001EA200000001

>  <PUBCHEM_MMFF94_ENERGY>  (1) 
-0.0168

>  <PUBCHEM_FEATURE_SELFOVERLAP>  (1) 
10.149

>  <PUBCHEM_SHAPE_FINGERPRINT>  (1) 
20096714 4 18411418427477814584
29004967 10 9511458935550556668
5460574 1 9295293841333325920

>  <PUBCHEM_SHAPE_MULTIPOLES>  (1) 
88.26
2.8
0.92
0.65
0.34
0.05
0
-0.79
0
0.15
0
0.06
-0.01
0

>  <PUBCHEM_SHAPE_SELFOVERLAP>  (1) 
138.339

>  <PUBCHEM_SHAPE_VOLUME>  (1) 
63.7

>  <PUBCHEM_COORDINATE_TYPE>  (1) 
2
5
10

$$$$
