7851
     RDKit          3D

  4  3  0  0  0  0  0  0  0  0999 V2000
    2.1926    0.1836    0.0109 Br  0  0  0  0  0  0  0  0  0  0  0  0
   -1.9698   -0.0815    0.0146 N   0  0  0  0  0  0  0  0  0  0  0  0
   -0.6329    0.4998   -0.0147 C   0  0  0  0  0  0  0  0  0  0  0  0
    0.4102   -0.6019   -0.0108 C   0  0  0  0  0  0  0  0  0  0  0  0
  1  4  1  0
  2  3  1  0
  3  4  1  0
M  END
>  <PUBCHEM_COMPOUND_CID>  (1) 
7851

>  <PUBCHEM_CONFORMER_RMSD>  (1) 
0.4

>  <PUBCHEM_CONFORMER_DIVERSEORDER>  (1) 
1
3
2

>  <PUBCHEM_MMFF94_PARTIAL_CHARGES>  (1) 
6
1 -0.23
10 0.36
2 -0.99
3 0.27
4 0.23
9 0.36

>  <PUBCHEM_EFFECTIVE_ROTOR_COUNT>  (1) 
1

>  <PUBCHEM_PHARMACOPHORE_FEATURES>  (1) 
3
1 1 hydrophobe
1 2 cation
1 2 donor

>  <PUBCHEM_HEAVY_ATOM_COUNT>  (1) 
4

>  <PUBCHEM_ATOM_DEF_STEREO_COUNT>  (1) 
0

>  <PUBCHEM_ATOM_UDEF_STEREO_COUNT>  (1) 
0

>  <PUBCHEM_BOND_DEF_STEREO_COUNT>  (1) 
0

>  <PUBCHEM_BOND_UDEF_STEREO_COUNT>  (1) 
0

>  <PUBCHEM_ISOTOPIC_ATOM_COUNT>  (1) 
0

>  <PUBCHEM_COMPONENT_COUNT>  (1) 
1

>  <PUBCHEM_CACTVS_TAUTO_COUNT>  (1) 
1

>  <PUBCHEM_CONFORMER_ID>  (1) 
00001EAB00000001

>  <PUBCHEM_MMFF94_ENERGY>  (1) 
-3.3792

>  <PUBCHEM_FEATURE_SELFOVERLAP>  (1) 
15.223

>  <PUBCHEM_SHAPE_FINGERPRINT>  (1) 
139733 1 9367345933423215141
16714656 1 18343866636322085662
20096714 4 18411136956980733016
21015797 1 9150297940080043459
5460574 1 9223234048414528256

>  <PUBCHEM_SHAPE_MULTIPOLES>  (1) 
83.28
2.96
0.8
0.63
0.29
0.01
0
-0.2
-0.02
0.08
0
0.11
-0.01
0

>  <PUBCHEM_SHAPE_SELFOVERLAP>  (1) 
123.709

>  <PUBCHEM_SHAPE_VOLUME>  (1) 
63.2

>  <PUBCHEM_COORDINATE_TYPE>  (1) 
2
5
10

$$$$
