7858
     RDKit          3D

  4  3  0  0  0  0  0  0  0  0999 V2000
   -1.6866   -0.3884   -0.0862 O   0  0  0  0  0  0  0  0  0  0  0  0
   -0.6492    0.5821   -0.0832 C   0  0  0  0  0  0  0  0  0  0  0  0
    0.5993   -0.0520    0.4340 C   0  0  0  0  0  0  0  0  0  0  0  0
    1.7364   -0.1417   -0.2646 C   0  0  0  0  0  0  0  0  0  0  0  0
  1  2  1  0
  2  3  1  0
  3  4  2  0
M  END
>  <PUBCHEM_COMPOUND_CID>  (1) 
7858

>  <PUBCHEM_CONFORMER_RMSD>  (1) 
0.4

>  <PUBCHEM_CONFORMER_DIVERSEORDER>  (1) 
1
3
2

>  <PUBCHEM_MMFF94_PARTIAL_CHARGES>  (1) 
8
1 -0.68
10 0.4
2 0.42
3 -0.29
4 -0.3
7 0.15
8 0.15
9 0.15

>  <PUBCHEM_EFFECTIVE_ROTOR_COUNT>  (1) 
1

>  <PUBCHEM_PHARMACOPHORE_FEATURES>  (1) 
3
1 1 acceptor
1 1 donor
1 4 hydrophobe

>  <PUBCHEM_HEAVY_ATOM_COUNT>  (1) 
4

>  <PUBCHEM_ATOM_DEF_STEREO_COUNT>  (1) 
0

>  <PUBCHEM_ATOM_UDEF_STEREO_COUNT>  (1) 
0

>  <PUBCHEM_BOND_DEF_STEREO_COUNT>  (1) 
0

>  <PUBCHEM_BOND_UDEF_STEREO_COUNT>  (1) 
0

>  <PUBCHEM_ISOTOPIC_ATOM_COUNT>  (1) 
0

>  <PUBCHEM_COMPONENT_COUNT>  (1) 
1

>  <PUBCHEM_CACTVS_TAUTO_COUNT>  (1) 
1

>  <PUBCHEM_CONFORMER_ID>  (1) 
00001EB200000001

>  <PUBCHEM_MMFF94_ENERGY>  (1) 
1.1363

>  <PUBCHEM_FEATURE_SELFOVERLAP>  (1) 
15.223

>  <PUBCHEM_SHAPE_FINGERPRINT>  (1) 
139733 1 11025795392385197257
20096714 4 7925623414841192086
21015797 1 12102972674910408824
5460574 1 9079118860117113322

>  <PUBCHEM_SHAPE_MULTIPOLES>  (1) 
76.45
2.15
0.72
0.67
0.03
0.05
0.03
-0.27
-0.25
-0.09
-0.01
0.09
0
-0.01

>  <PUBCHEM_SHAPE_SELFOVERLAP>  (1) 
127.049

>  <PUBCHEM_SHAPE_VOLUME>  (1) 
52.6

>  <PUBCHEM_COORDINATE_TYPE>  (1) 
2
5
10

$$$$
