7869
     RDKit          3D

  8  7  0  0  0  0  0  0  0  0999 V2000
    1.1451   -0.0592    0.0000 C   0  0  0  0  0  0  0  0  0  0  0  0
   -0.2429   -0.6910   -0.0007 C   0  0  0  0  0  0  0  0  0  0  0  0
    2.1920   -1.1993   -0.0023 C   0  0  0  0  0  0  0  0  0  0  0  0
    1.3858    0.7785    1.2678 C   0  0  0  0  0  0  0  0  0  0  0  0
    1.3882    0.7838   -1.2639 C   0  0  0  0  0  0  0  0  0  0  0  0
   -1.4705   -0.1318   -0.0001 C   0  0  0  0  0  0  0  0  0  0  0  0
   -2.7879   -0.8518   -0.0008 C   0  0  0  0  0  0  0  0  0  0  0  0
   -1.6098    1.3708   -0.0001 C   0  0  0  0  0  0  0  0  0  0  0  0
  1  2  1  0
  1  3  1  0
  1  4  1  0
  1  5  1  0
  2  6  2  3
  6  7  1  0
  6  8  1  0
M  END
>  <PUBCHEM_COMPOUND_CID>  (1) 
7869

>  <PUBCHEM_CONFORMER_RMSD>  (1) 
0.4

>  <PUBCHEM_CONFORMER_DIVERSEORDER>  (1) 
1

>  <PUBCHEM_MMFF94_PARTIAL_CHARGES>  (1) 
6
1 0.14
2 -0.29
6 -0.28
7 0.14
8 0.14
9 0.15

>  <PUBCHEM_EFFECTIVE_ROTOR_COUNT>  (1) 
1

>  <PUBCHEM_PHARMACOPHORE_FEATURES>  (1) 
2
3 6 7 8 hydrophobe
4 1 3 4 5 hydrophobe

>  <PUBCHEM_HEAVY_ATOM_COUNT>  (1) 
8

>  <PUBCHEM_ATOM_DEF_STEREO_COUNT>  (1) 
0

>  <PUBCHEM_ATOM_UDEF_STEREO_COUNT>  (1) 
0

>  <PUBCHEM_BOND_DEF_STEREO_COUNT>  (1) 
0

>  <PUBCHEM_BOND_UDEF_STEREO_COUNT>  (1) 
0

>  <PUBCHEM_ISOTOPIC_ATOM_COUNT>  (1) 
0

>  <PUBCHEM_COMPONENT_COUNT>  (1) 
1

>  <PUBCHEM_CACTVS_TAUTO_COUNT>  (1) 
1

>  <PUBCHEM_CONFORMER_ID>  (1) 
00001EBD00000001

>  <PUBCHEM_MMFF94_ENERGY>  (1) 
19.8852

>  <PUBCHEM_FEATURE_SELFOVERLAP>  (1) 
10.149

>  <PUBCHEM_SHAPE_FINGERPRINT>  (1) 
10857977 72 18267015249250043131
12897270 3 18189630503794627743
12932764 1 18060140976779515095
14128692 85 18337685113453090758
20653091 64 18113056025980151018
21040471 1 18410855494530221607
23552333 60 17313662771284632665
23552423 10 18187367610180942227
23552449 11 17489586791939106539
24536 1 18113615707252424303
29004967 10 16056886805571114118
5084963 1 18334858290337541219

>  <PUBCHEM_SHAPE_MULTIPOLES>  (1) 
164.64
3.44
1.34
1.02
1.46
0.11
0
-0.78
0
0.04
0
-0.56
0.31
0

>  <PUBCHEM_SHAPE_SELFOVERLAP>  (1) 
300.389

>  <PUBCHEM_SHAPE_VOLUME>  (1) 
108.7

>  <PUBCHEM_COORDINATE_TYPE>  (1) 
2
5
10

$$$$
