7872
     RDKit          3D

  9  8  0  0  0  0  0  0  0  0999 V2000
    0.0200   -0.0022   -1.2768 S   0  0  0  0  0  0  0  0  0  0  0  0
   -1.3714    0.0002   -0.0804 C   0  0  0  0  0  0  0  0  0  0  0  0
    1.3702    0.0002   -0.0794 C   0  0  0  0  0  0  0  0  0  0  0  0
   -1.2707    1.2582    0.7869 C   0  0  0  0  0  0  0  0  0  0  0  0
   -2.6848    0.0011   -0.8677 C   0  0  0  0  0  0  0  0  0  0  0  0
   -1.2737   -1.2567    0.7888 C   0  0  0  0  0  0  0  0  0  0  0  0
    0.9040   -0.7223    1.1877 C   0  0  0  0  0  0  0  0  0  0  0  0
    2.5655   -0.7299   -0.6983 C   0  0  0  0  0  0  0  0  0  0  0  0
    1.7410    1.4514    0.2394 C   0  0  0  0  0  0  0  0  0  0  0  0
  1  2  1  0
  1  3  1  0
  2  4  1  0
  2  5  1  0
  2  6  1  0
  3  7  1  0
  3  8  1  0
  3  9  1  0
M  END
>  <PUBCHEM_COMPOUND_CID>  (1) 
7872

>  <PUBCHEM_CONFORMER_RMSD>  (1) 
0.4

>  <PUBCHEM_CONFORMER_DIVERSEORDER>  (1) 
1

>  <PUBCHEM_MMFF94_PARTIAL_CHARGES>  (1) 
3
1 -0.46
2 0.23
3 0.23

>  <PUBCHEM_EFFECTIVE_ROTOR_COUNT>  (1) 
2

>  <PUBCHEM_PHARMACOPHORE_FEATURES>  (1) 
2
4 2 4 5 6 hydrophobe
4 3 7 8 9 hydrophobe

>  <PUBCHEM_HEAVY_ATOM_COUNT>  (1) 
9

>  <PUBCHEM_ATOM_DEF_STEREO_COUNT>  (1) 
0

>  <PUBCHEM_ATOM_UDEF_STEREO_COUNT>  (1) 
0

>  <PUBCHEM_BOND_DEF_STEREO_COUNT>  (1) 
0

>  <PUBCHEM_BOND_UDEF_STEREO_COUNT>  (1) 
0

>  <PUBCHEM_ISOTOPIC_ATOM_COUNT>  (1) 
0

>  <PUBCHEM_COMPONENT_COUNT>  (1) 
1

>  <PUBCHEM_CACTVS_TAUTO_COUNT>  (1) 
1

>  <PUBCHEM_CONFORMER_ID>  (1) 
00001EC000000001

>  <PUBCHEM_MMFF94_ENERGY>  (1) 
87.6413

>  <PUBCHEM_FEATURE_SELFOVERLAP>  (1) 
10.149

>  <PUBCHEM_SHAPE_FINGERPRINT>  (1) 
12423570 1 14755027977106400548
12897270 3 17916865849540927540
12932741 1 18334297607989682798
12932764 1 18041270007203900287
14128692 85 17060625486200419500
15310529 11 17632294592330831796
15775835 57 17676203550441715870
16945 1 18335140869004770018
18185500 45 17313104193486690355
21040471 1 17240756285450377579
21922407 69 18129653222488875702
23235685 24 15502374512902666143
23235687 12 17274836739248575165
23552423 10 18060419088443385831
24536 1 18342735230177537728
29004967 10 18201730530875137094
369184 2 18410012160706282225
5084963 1 17060618888756223278

>  <PUBCHEM_SHAPE_MULTIPOLES>  (1) 
189.07
3.31
1.31
1.27
0.06
0.25
0.07
-0.11
0.69
-0.16
-0.36
0.1
-0.14
0.12

>  <PUBCHEM_SHAPE_SELFOVERLAP>  (1) 
341.59

>  <PUBCHEM_SHAPE_VOLUME>  (1) 
124.7

>  <PUBCHEM_COORDINATE_TYPE>  (1) 
2
5
10

$$$$
