7894
     RDKit          3D

  6  5  0  0  0  0  0  0  0  0999 V2000
   -2.7428    0.2294   -0.1845 N   0  0  0  0  0  0  0  0  0  0  0  0
    1.0551    0.0221    0.3355 C   0  0  0  0  0  0  0  0  0  0  0  0
   -0.3140    0.5543   -0.1290 C   0  0  0  0  0  0  0  0  0  0  0  0
   -1.4837   -0.3408    0.2837 C   0  0  0  0  0  0  0  0  0  0  0  0
    1.2746   -1.3913   -0.2098 C   0  0  0  0  0  0  0  0  0  0  0  0
    2.2108    0.9262   -0.0959 C   0  0  0  0  0  0  0  0  0  0  0  0
  1  4  1  0
  2  3  1  0
  2  5  1  0
  2  6  1  0
  3  4  1  0
M  END
>  <PUBCHEM_COMPOUND_CID>  (1) 
7894

>  <PUBCHEM_CONFORMER_RMSD>  (1) 
0.4

>  <PUBCHEM_CONFORMER_DIVERSEORDER>  (1) 
1
3
2

>  <PUBCHEM_MMFF94_PARTIAL_CHARGES>  (1) 
4
1 -0.99
18 0.36
19 0.36
4 0.27

>  <PUBCHEM_EFFECTIVE_ROTOR_COUNT>  (1) 
2

>  <PUBCHEM_PHARMACOPHORE_FEATURES>  (1) 
3
1 1 cation
1 1 donor
3 2 5 6 hydrophobe

>  <PUBCHEM_HEAVY_ATOM_COUNT>  (1) 
6

>  <PUBCHEM_ATOM_DEF_STEREO_COUNT>  (1) 
0

>  <PUBCHEM_ATOM_UDEF_STEREO_COUNT>  (1) 
0

>  <PUBCHEM_BOND_DEF_STEREO_COUNT>  (1) 
0

>  <PUBCHEM_BOND_UDEF_STEREO_COUNT>  (1) 
0

>  <PUBCHEM_ISOTOPIC_ATOM_COUNT>  (1) 
0

>  <PUBCHEM_COMPONENT_COUNT>  (1) 
1

>  <PUBCHEM_CACTVS_TAUTO_COUNT>  (1) 
1

>  <PUBCHEM_CONFORMER_ID>  (1) 
00001ED600000001

>  <PUBCHEM_MMFF94_ENERGY>  (1) 
-0.2659

>  <PUBCHEM_FEATURE_SELFOVERLAP>  (1) 
15.223

>  <PUBCHEM_SHAPE_FINGERPRINT>  (1) 
139733 1 8934416524236939186
14390081 3 18341611550864102945
16714656 1 18265619964525335084
20096714 4 18339924934518448312
21040471 1 18267584791809322066
23552449 11 18189606164257432146
24536 1 18338505340183873633
29004967 10 18334863822139354625
5460574 1 9799698099274018577

>  <PUBCHEM_SHAPE_MULTIPOLES>  (1) 
118.5
3.3
1.17
0.65
1.64
0.33
0.02
-0.56
-0.18
-0.65
-0.08
-0.03
0.01
0.08

>  <PUBCHEM_SHAPE_SELFOVERLAP>  (1) 
202.201

>  <PUBCHEM_SHAPE_VOLUME>  (1) 
79.6

>  <PUBCHEM_COORDINATE_TYPE>  (1) 
2
5
10

$$$$
