7901
     RDKit          3D

  6  5  0  0  0  0  0  0  0  0999 V2000
   -2.9251    0.2392    0.1905 Cl  0  0  0  0  0  0  0  0  0  0  0  0
    1.0649    0.0165   -0.3135 N   0  0  0  0  0  0  0  0  0  0  0  0
   -0.2297    0.5364    0.1254 C   0  0  0  0  0  0  0  0  0  0  0  0
   -1.3439   -0.3965   -0.3231 C   0  0  0  0  0  0  0  0  0  0  0  0
    1.2927   -1.3190    0.2372 C   0  0  0  0  0  0  0  0  0  0  0  0
    2.1411    0.9235    0.0835 C   0  0  0  0  0  0  0  0  0  0  0  0
  1  4  1  0
  2  3  1  0
  2  5  1  0
  2  6  1  0
  3  4  1  0
M  END
>  <PUBCHEM_COMPOUND_CID>  (1) 
7901

>  <PUBCHEM_CONFORMER_RMSD>  (1) 
0.4

>  <PUBCHEM_CONFORMER_DIVERSEORDER>  (1) 
1
5
3
2
4

>  <PUBCHEM_MMFF94_PARTIAL_CHARGES>  (1) 
6
1 -0.29
2 -0.81
3 0.27
4 0.29
5 0.27
6 0.27

>  <PUBCHEM_EFFECTIVE_ROTOR_COUNT>  (1) 
2

>  <PUBCHEM_PHARMACOPHORE_FEATURES>  (1) 
1
1 2 cation

>  <PUBCHEM_HEAVY_ATOM_COUNT>  (1) 
6

>  <PUBCHEM_ATOM_DEF_STEREO_COUNT>  (1) 
0

>  <PUBCHEM_ATOM_UDEF_STEREO_COUNT>  (1) 
0

>  <PUBCHEM_BOND_DEF_STEREO_COUNT>  (1) 
0

>  <PUBCHEM_BOND_UDEF_STEREO_COUNT>  (1) 
0

>  <PUBCHEM_ISOTOPIC_ATOM_COUNT>  (1) 
0

>  <PUBCHEM_COMPONENT_COUNT>  (1) 
1

>  <PUBCHEM_CACTVS_TAUTO_COUNT>  (1) 
1

>  <PUBCHEM_CONFORMER_ID>  (1) 
00001EDD00000001

>  <PUBCHEM_MMFF94_ENERGY>  (1) 
8.8831

>  <PUBCHEM_FEATURE_SELFOVERLAP>  (1) 
5.074

>  <PUBCHEM_SHAPE_FINGERPRINT>  (1) 
139733 1 9511162067194889575
14390081 3 18131068272669111961
20096714 4 18342738571720181164
21040471 1 18265897041397414854
23552333 60 18342740671869466546
23552449 11 18115294575640568506
29004967 10 17967818249306532737
5460574 1 8646775490966058565

>  <PUBCHEM_SHAPE_MULTIPOLES>  (1) 
120.37
3.73
1.14
0.66
2.15
0.23
0.01
-0.59
0.25
-0.64
0.08
0.05
0.01
-0.1

>  <PUBCHEM_SHAPE_SELFOVERLAP>  (1) 
199.209

>  <PUBCHEM_SHAPE_VOLUME>  (1) 
84.2

>  <PUBCHEM_COORDINATE_TYPE>  (1) 
2
5
10

$$$$
