7909
     RDKit          3D

  7  6  0  0  0  0  0  0  0  0999 V2000
   -1.4684   -0.9422   -0.8413 O   0  0  0  0  0  0  0  0  0  0  0  0
    1.2633   -0.1090   -0.2457 C   0  0  0  0  0  0  0  0  0  0  0  0
    0.0342    0.7975   -0.0821 C   0  0  0  0  0  0  0  0  0  0  0  0
    1.3330   -1.1623    0.8631 C   0  0  0  0  0  0  0  0  0  0  0  0
    2.5406    0.7334   -0.2376 C   0  0  0  0  0  0  0  0  0  0  0  0
   -1.2907    0.0530   -0.1408 C   0  0  0  0  0  0  0  0  0  0  0  0
   -2.4121    0.6296    0.6844 C   0  0  0  0  0  0  0  0  0  0  0  0
  1  6  2  0
  2  3  1  0
  2  4  1  0
  2  5  1  0
  3  6  1  0
  6  7  1  0
M  END
>  <PUBCHEM_COMPOUND_CID>  (1) 
7909

>  <PUBCHEM_CONFORMER_RMSD>  (1) 
0.4

>  <PUBCHEM_CONFORMER_DIVERSEORDER>  (1) 
1
3
4
2

>  <PUBCHEM_MMFF94_PARTIAL_CHARGES>  (1) 
4
1 -0.57
3 0.06
6 0.45
7 0.06

>  <PUBCHEM_EFFECTIVE_ROTOR_COUNT>  (1) 
2

>  <PUBCHEM_PHARMACOPHORE_FEATURES>  (1) 
2
1 1 acceptor
3 2 4 5 hydrophobe

>  <PUBCHEM_HEAVY_ATOM_COUNT>  (1) 
7

>  <PUBCHEM_ATOM_DEF_STEREO_COUNT>  (1) 
0

>  <PUBCHEM_ATOM_UDEF_STEREO_COUNT>  (1) 
0

>  <PUBCHEM_BOND_DEF_STEREO_COUNT>  (1) 
0

>  <PUBCHEM_BOND_UDEF_STEREO_COUNT>  (1) 
0

>  <PUBCHEM_ISOTOPIC_ATOM_COUNT>  (1) 
0

>  <PUBCHEM_COMPONENT_COUNT>  (1) 
1

>  <PUBCHEM_CACTVS_TAUTO_COUNT>  (1) 
3

>  <PUBCHEM_CONFORMER_ID>  (1) 
00001EE500000001

>  <PUBCHEM_MMFF94_ENERGY>  (1) 
5.2941

>  <PUBCHEM_FEATURE_SELFOVERLAP>  (1) 
10.148

>  <PUBCHEM_SHAPE_FINGERPRINT>  (1) 
14390081 3 17917991702308787472
16714656 1 18060146422444689981
18185500 45 18410284826494098206
20096714 4 18412829092148106524
21040471 1 17632016330126782549
23235685 24 17749116616345313832
23552333 60 18336828580846484832
24536 1 17346585379051036388
29004967 10 17313109635168056328
5460574 1 9223232927280546349

>  <PUBCHEM_SHAPE_MULTIPOLES>  (1) 
138.19
3.41
1.14
0.87
0.18
0.2
0.01
-0.59
0.34
-0.36
0.1
0.22
0.15
-0.45

>  <PUBCHEM_SHAPE_SELFOVERLAP>  (1) 
246.485

>  <PUBCHEM_SHAPE_VOLUME>  (1) 
90.8

>  <PUBCHEM_COORDINATE_TYPE>  (1) 
2
5
10

$$$$
