7910
     RDKit          3D

  7  6  0  0  1  0  0  0  0  0999 V2000
   -1.0367   -1.2508    0.4925 O   0  0  0  0  0  0  0  0  0  0  0  0
    1.3806    0.2736   -0.4366 C   0  0  0  0  0  0  0  0  0  0  0  0
   -0.0945    0.5217   -0.8001 C   0  0  0  0  0  0  0  0  0  0  0  0
   -1.1214    0.1598    0.2796 C   0  0  0  0  0  0  0  0  0  0  0  0
    1.8020    1.0188    0.8301 C   0  0  0  0  0  0  0  0  0  0  0  0
    1.6230   -1.2279   -0.2580 C   0  0  0  0  0  0  0  0  0  0  0  0
   -2.5531    0.5049   -0.1074 C   0  0  0  0  0  0  0  0  0  0  0  0
  1  4  1  0
  2  3  1  0
  2  5  1  0
  2  6  1  0
  3  4  1  0
  4  7  1  0
M  END
>  <PUBCHEM_COMPOUND_CID>  (1) 
7910

>  <PUBCHEM_CONFORMER_RMSD>  (1) 
0.4

>  <PUBCHEM_CONFORMER_DIVERSEORDER>  (1) 
1
2

>  <PUBCHEM_MMFF94_PARTIAL_CHARGES>  (1) 
3
1 -0.68
21 0.4
4 0.28

>  <PUBCHEM_EFFECTIVE_ROTOR_COUNT>  (1) 
2

>  <PUBCHEM_PHARMACOPHORE_FEATURES>  (1) 
3
1 1 acceptor
1 1 donor
3 2 5 6 hydrophobe

>  <PUBCHEM_HEAVY_ATOM_COUNT>  (1) 
7

>  <PUBCHEM_ATOM_DEF_STEREO_COUNT>  (1) 
0

>  <PUBCHEM_ATOM_UDEF_STEREO_COUNT>  (1) 
1

>  <PUBCHEM_BOND_DEF_STEREO_COUNT>  (1) 
0

>  <PUBCHEM_BOND_UDEF_STEREO_COUNT>  (1) 
0

>  <PUBCHEM_ISOTOPIC_ATOM_COUNT>  (1) 
0

>  <PUBCHEM_COMPONENT_COUNT>  (1) 
1

>  <PUBCHEM_CACTVS_TAUTO_COUNT>  (1) 
1

>  <PUBCHEM_CONFORMER_ID>  (1) 
00001EE600000001

>  <PUBCHEM_MMFF94_ENERGY>  (1) 
9.6647

>  <PUBCHEM_FEATURE_SELFOVERLAP>  (1) 
15.223

>  <PUBCHEM_SHAPE_FINGERPRINT>  (1) 
14390081 3 17988922305534029801
16714656 1 17604160211437127863
20096714 4 17131549552364364608
21040471 1 18260553320275778269
23552449 11 18200586995415819678
24536 1 18114747143335194829
29004967 10 18409453574397565576
5084963 1 18261962838511679013

>  <PUBCHEM_SHAPE_MULTIPOLES>  (1) 
138.19
3.04
1.24
0.88
1.21
0.26
-0.02
-0.32
0.19
-0.46
0.17
-0.13
-0.1
0.34

>  <PUBCHEM_SHAPE_SELFOVERLAP>  (1) 
243.494

>  <PUBCHEM_SHAPE_VOLUME>  (1) 
91.9

>  <PUBCHEM_COORDINATE_TYPE>  (1) 
2
5
10

$$$$
