7912
     RDKit          3D

  7  6  0  0  0  0  0  0  0  0999 V2000
   -0.0044    0.7083    0.0056 N   0  0  0  0  0  0  0  0  0  0  0  0
    1.1809   -0.1197   -0.2128 C   0  0  0  0  0  0  0  0  0  0  0  0
   -1.1811   -0.1212    0.2135 C   0  0  0  0  0  0  0  0  0  0  0  0
    1.4367   -1.0081    1.0014 C   0  0  0  0  0  0  0  0  0  0  0  0
    2.3813    0.7773   -0.4981 C   0  0  0  0  0  0  0  0  0  0  0  0
   -1.4267   -1.0060   -1.0055 C   0  0  0  0  0  0  0  0  0  0  0  0
   -2.3868    0.7695    0.4959 C   0  0  0  0  0  0  0  0  0  0  0  0
  1  2  1  0
  1  3  1  0
  2  4  1  0
  2  5  1  0
  3  6  1  0
  3  7  1  0
M  END
>  <PUBCHEM_COMPOUND_CID>  (1) 
7912

>  <PUBCHEM_CONFORMER_RMSD>  (1) 
0.4

>  <PUBCHEM_CONFORMER_DIVERSEORDER>  (1) 
1
2

>  <PUBCHEM_MMFF94_PARTIAL_CHARGES>  (1) 
4
1 -0.9
10 0.36
2 0.27
3 0.27

>  <PUBCHEM_EFFECTIVE_ROTOR_COUNT>  (1) 
2

>  <PUBCHEM_PHARMACOPHORE_FEATURES>  (1) 
4
1 1 cation
1 1 donor
3 2 4 5 hydrophobe
3 3 6 7 hydrophobe

>  <PUBCHEM_HEAVY_ATOM_COUNT>  (1) 
7

>  <PUBCHEM_ATOM_DEF_STEREO_COUNT>  (1) 
0

>  <PUBCHEM_ATOM_UDEF_STEREO_COUNT>  (1) 
0

>  <PUBCHEM_BOND_DEF_STEREO_COUNT>  (1) 
0

>  <PUBCHEM_BOND_UDEF_STEREO_COUNT>  (1) 
0

>  <PUBCHEM_ISOTOPIC_ATOM_COUNT>  (1) 
0

>  <PUBCHEM_COMPONENT_COUNT>  (1) 
1

>  <PUBCHEM_CACTVS_TAUTO_COUNT>  (1) 
1

>  <PUBCHEM_CONFORMER_ID>  (1) 
00001EE800000001

>  <PUBCHEM_MMFF94_ENERGY>  (1) 
-0.7489

>  <PUBCHEM_FEATURE_SELFOVERLAP>  (1) 
20.297

>  <PUBCHEM_SHAPE_FINGERPRINT>  (1) 
12932741 1 15697994162802537156
14390081 3 18342460373788043976
16714656 1 17988653990347410117
18185500 45 18410001156805040450
20096714 4 18410299115903143432
20711978 78 17604989225972133634
21040471 1 17702946929046469135
23552423 10 18340768152336287310
24536 1 18410282614570317858
29004967 10 16877948225972487456
5460574 1 9727636072724417593

>  <PUBCHEM_SHAPE_MULTIPOLES>  (1) 
139.08
3.31
1.14
0.99
0.01
0.11
0
-0.7
0
-0.01
0
0
0.24
-0.69

>  <PUBCHEM_SHAPE_SELFOVERLAP>  (1) 
243.273

>  <PUBCHEM_SHAPE_VOLUME>  (1) 
94

>  <PUBCHEM_COORDINATE_TYPE>  (1) 
2
5
10

$$$$
