7913
     RDKit          3D

  7  6  0  0  0  0  0  0  0  0999 V2000
   -1.4151    1.2205    0.0002 O   0  0  0  0  0  0  0  0  0  0  0  0
    1.4149    1.2207    0.0001 O   0  0  0  0  0  0  0  0  0  0  0  0
    0.0000   -0.6370   -0.0004 N   0  0  0  0  0  0  0  0  0  0  0  0
   -2.2871   -0.9054    0.0003 N   0  0  0  0  0  0  0  0  0  0  0  0
    2.2872   -0.9053    0.0004 N   0  0  0  0  0  0  0  0  0  0  0  0
   -1.2430    0.0032   -0.0002 C   0  0  0  0  0  0  0  0  0  0  0  0
    1.2431    0.0032   -0.0003 C   0  0  0  0  0  0  0  0  0  0  0  0
  1  6  2  0
  2  7  2  0
  3  6  1  0
  3  7  1  0
  4  6  1  0
  5  7  1  0
M  END
>  <PUBCHEM_COMPOUND_CID>  (1) 
7913

>  <PUBCHEM_CONFORMER_RMSD>  (1) 
0.4

>  <PUBCHEM_CONFORMER_DIVERSEORDER>  (1) 
1
2

>  <PUBCHEM_MMFF94_PARTIAL_CHARGES>  (1) 
12
1 -0.57
10 0.37
11 0.37
12 0.37
2 -0.57
3 -0.49
4 -0.8
5 -0.8
6 0.69
7 0.69
8 0.37
9 0.37

>  <PUBCHEM_EFFECTIVE_ROTOR_COUNT>  (1) 
2

>  <PUBCHEM_PHARMACOPHORE_FEATURES>  (1) 
5
1 1 acceptor
1 2 acceptor
1 3 donor
1 4 donor
1 5 donor

>  <PUBCHEM_HEAVY_ATOM_COUNT>  (1) 
7

>  <PUBCHEM_ATOM_DEF_STEREO_COUNT>  (1) 
0

>  <PUBCHEM_ATOM_UDEF_STEREO_COUNT>  (1) 
0

>  <PUBCHEM_BOND_DEF_STEREO_COUNT>  (1) 
0

>  <PUBCHEM_BOND_UDEF_STEREO_COUNT>  (1) 
0

>  <PUBCHEM_ISOTOPIC_ATOM_COUNT>  (1) 
0

>  <PUBCHEM_COMPONENT_COUNT>  (1) 
1

>  <PUBCHEM_CACTVS_TAUTO_COUNT>  (1) 
5

>  <PUBCHEM_CONFORMER_ID>  (1) 
00001EE900000001

>  <PUBCHEM_MMFF94_ENERGY>  (1) 
11.2082

>  <PUBCHEM_FEATURE_SELFOVERLAP>  (1) 
25.476

>  <PUBCHEM_SHAPE_FINGERPRINT>  (1) 
20096714 4 18410293583948349432
21040471 1 17978510836567276609
23552423 10 18260832604703298774
24536 1 18338502097462466053
29004967 10 18190465063380131011
5460574 1 9295290542830214530

>  <PUBCHEM_SHAPE_MULTIPOLES>  (1) 
117.38
2.98
1.19
0.54
0
0.24
0
-0.61
0
0
0
0
-0.01
0

>  <PUBCHEM_SHAPE_SELFOVERLAP>  (1) 
220.81

>  <PUBCHEM_SHAPE_VOLUME>  (1) 
72.4

>  <PUBCHEM_COORDINATE_TYPE>  (1) 
2
5
10

$$$$
