7915
     RDKit          3D

  7  6  0  0  0  0  0  0  0  0999 V2000
   -0.0154   -0.6934    0.1409 O   0  0  0  0  0  0  0  0  0  0  0  0
    1.4176    1.0160    0.7421 O   0  0  0  0  0  0  0  0  0  0  0  0
   -1.1742    0.1276    0.2501 C   0  0  0  0  0  0  0  0  0  0  0  0
   -1.1869    1.1305   -0.8934 C   0  0  0  0  0  0  0  0  0  0  0  0
   -2.4143   -0.7534    0.2450 C   0  0  0  0  0  0  0  0  0  0  0  0
    1.1815   -0.0345    0.1609 C   0  0  0  0  0  0  0  0  0  0  0  0
    2.1917   -0.7928   -0.6457 C   0  0  0  0  0  0  0  0  0  0  0  0
  1  3  1  0
  1  6  1  0
  2  6  2  0
  3  4  1  0
  3  5  1  0
  6  7  1  0
M  END
>  <PUBCHEM_COMPOUND_CID>  (1) 
7915

>  <PUBCHEM_CONFORMER_RMSD>  (1) 
0.4

>  <PUBCHEM_CONFORMER_DIVERSEORDER>  (1) 
2
1
4
3
6
5

>  <PUBCHEM_MMFF94_PARTIAL_CHARGES>  (1) 
5
1 -0.43
2 -0.57
3 0.28
6 0.66
7 0.06

>  <PUBCHEM_EFFECTIVE_ROTOR_COUNT>  (1) 
2

>  <PUBCHEM_PHARMACOPHORE_FEATURES>  (1) 
2
1 2 acceptor
3 3 4 5 hydrophobe

>  <PUBCHEM_HEAVY_ATOM_COUNT>  (1) 
7

>  <PUBCHEM_ATOM_DEF_STEREO_COUNT>  (1) 
0

>  <PUBCHEM_ATOM_UDEF_STEREO_COUNT>  (1) 
0

>  <PUBCHEM_BOND_DEF_STEREO_COUNT>  (1) 
0

>  <PUBCHEM_BOND_UDEF_STEREO_COUNT>  (1) 
0

>  <PUBCHEM_ISOTOPIC_ATOM_COUNT>  (1) 
0

>  <PUBCHEM_COMPONENT_COUNT>  (1) 
1

>  <PUBCHEM_CACTVS_TAUTO_COUNT>  (1) 
1

>  <PUBCHEM_CONFORMER_ID>  (1) 
00001EEB00000002

>  <PUBCHEM_MMFF94_ENERGY>  (1) 
9.5231

>  <PUBCHEM_FEATURE_SELFOVERLAP>  (1) 
10.148

>  <PUBCHEM_SHAPE_FINGERPRINT>  (1) 
14390081 3 11963395171264680647
16714656 1 18114191821359878623
20096714 4 18131066069187092456
21040471 1 17608073287558433589
23552423 10 17459190672809594466
24536 1 17917135131100028281
29004967 10 17703230620273972190
5084963 1 18334581230428929298
5460574 1 8935002551118278626

>  <PUBCHEM_SHAPE_MULTIPOLES>  (1) 
132.32
3.12
1.15
0.86
0
0.19
-0.05
-0.75
-0.24
-0.23
-0.1
0.15
0.15
0.49

>  <PUBCHEM_SHAPE_SELFOVERLAP>  (1) 
239.437

>  <PUBCHEM_SHAPE_VOLUME>  (1) 
85.8

>  <PUBCHEM_COORDINATE_TYPE>  (1) 
2
5
10

$$$$
