7916
     RDKit          3D

  7  6  0  0  0  0  0  0  0  0999 V2000
    0.0994    0.0593    0.7804 O   0  0  0  0  0  0  0  0  0  0  0  0
    1.0371   -0.0684   -1.3473 O   0  0  0  0  0  0  0  0  0  0  0  0
   -1.1578    0.0660    0.2081 C   0  0  0  0  0  0  0  0  0  0  0  0
   -1.7958   -1.2698    0.0004 C   0  0  0  0  0  0  0  0  0  0  0  0
    1.1245   -0.0122   -0.1274 C   0  0  0  0  0  0  0  0  0  0  0  0
    2.4305    0.0009    0.6115 C   0  0  0  0  0  0  0  0  0  0  0  0
   -1.7379    1.2242   -0.1256 C   0  0  0  0  0  0  0  0  0  0  0  0
  1  3  1  0
  1  5  1  0
  2  5  2  0
  3  4  1  0
  3  7  2  0
  5  6  1  0
M  END
>  <PUBCHEM_COMPOUND_CID>  (1) 
7916

>  <PUBCHEM_CONFORMER_RMSD>  (1) 
0.4

>  <PUBCHEM_CONFORMER_DIVERSEORDER>  (1) 
1
9
4
2
3
6
5
8
7

>  <PUBCHEM_MMFF94_PARTIAL_CHARGES>  (1) 
9
1 -0.23
14 0.15
15 0.15
2 -0.57
3 -0.06
4 0.14
5 0.66
6 0.06
7 -0.3

>  <PUBCHEM_EFFECTIVE_ROTOR_COUNT>  (1) 
2

>  <PUBCHEM_PHARMACOPHORE_FEATURES>  (1) 
1
1 2 acceptor

>  <PUBCHEM_HEAVY_ATOM_COUNT>  (1) 
7

>  <PUBCHEM_ATOM_DEF_STEREO_COUNT>  (1) 
0

>  <PUBCHEM_ATOM_UDEF_STEREO_COUNT>  (1) 
0

>  <PUBCHEM_BOND_DEF_STEREO_COUNT>  (1) 
0

>  <PUBCHEM_BOND_UDEF_STEREO_COUNT>  (1) 
0

>  <PUBCHEM_ISOTOPIC_ATOM_COUNT>  (1) 
0

>  <PUBCHEM_COMPONENT_COUNT>  (1) 
1

>  <PUBCHEM_CACTVS_TAUTO_COUNT>  (1) 
1

>  <PUBCHEM_CONFORMER_ID>  (1) 
00001EEC00000001

>  <PUBCHEM_MMFF94_ENERGY>  (1) 
11.903

>  <PUBCHEM_FEATURE_SELFOVERLAP>  (1) 
5.074

>  <PUBCHEM_SHAPE_FINGERPRINT>  (1) 
20096714 4 16516266079302140204
21040471 1 18193000318118892569
23552449 1 18412820304671665609
24536 1 17417541232410033112
29004967 10 16845580832712408538

>  <PUBCHEM_SHAPE_MULTIPOLES>  (1) 
132.32
3
1.07
0.93
0.96
0.03
0.21
0.07
-0.3
-0.85
0.01
0.32
0
0

>  <PUBCHEM_SHAPE_SELFOVERLAP>  (1) 
244.649

>  <PUBCHEM_SHAPE_VOLUME>  (1) 
83.2

>  <PUBCHEM_COORDINATE_TYPE>  (1) 
2
5
10

$$$$
