7939
     RDKit          3D

  8  8  0  0  0  0  0  0  0  0999 V2000
   -0.0447   -1.0378   -0.0001 N   0  0  0  0  0  0  0  0  0  0  0  0
    1.2678    0.9831   -0.0002 N   0  0  0  0  0  0  0  0  0  0  0  0
    2.3000   -1.1242    0.0002 N   0  0  0  0  0  0  0  0  0  0  0  0
   -1.1556   -0.2722    0.0000 C   0  0  0  0  0  0  0  0  0  0  0  0
   -1.1357    1.1077    0.0002 C   0  0  0  0  0  0  0  0  0  0  0  0
   -2.4643   -0.9884    0.0000 C   0  0  0  0  0  0  0  0  0  0  0  0
    1.1159   -0.3550   -0.0001 C   0  0  0  0  0  0  0  0  0  0  0  0
    0.1167    1.6868   -0.0001 C   0  0  0  0  0  0  0  0  0  0  0  0
  1  4  2  0
  1  7  1  0
  2  7  2  0
  2  8  1  0
  3  7  1  0
  4  5  1  0
  4  6  1  0
  5  8  2  0
M  END
>  <PUBCHEM_COMPOUND_CID>  (1) 
7939

>  <PUBCHEM_CONFORMER_RMSD>  (1) 
0.4

>  <PUBCHEM_CONFORMER_DIVERSEORDER>  (1) 
1

>  <PUBCHEM_MMFF94_PARTIAL_CHARGES>  (1) 
12
1 -0.62
13 0.15
14 0.4
15 0.4
2 -0.62
3 -0.9
4 0.17
5 -0.15
6 0.14
7 0.72
8 0.16
9 0.15

>  <PUBCHEM_EFFECTIVE_ROTOR_COUNT>  (1) 
0

>  <PUBCHEM_PHARMACOPHORE_FEATURES>  (1) 
4
1 1 acceptor
1 3 donor
4 1 2 3 7 cation
6 1 2 4 5 7 8 rings

>  <PUBCHEM_HEAVY_ATOM_COUNT>  (1) 
8

>  <PUBCHEM_ATOM_DEF_STEREO_COUNT>  (1) 
0

>  <PUBCHEM_ATOM_UDEF_STEREO_COUNT>  (1) 
0

>  <PUBCHEM_BOND_DEF_STEREO_COUNT>  (1) 
0

>  <PUBCHEM_BOND_UDEF_STEREO_COUNT>  (1) 
0

>  <PUBCHEM_ISOTOPIC_ATOM_COUNT>  (1) 
0

>  <PUBCHEM_COMPONENT_COUNT>  (1) 
1

>  <PUBCHEM_CACTVS_TAUTO_COUNT>  (1) 
3

>  <PUBCHEM_CONFORMER_ID>  (1) 
00001F0300000001

>  <PUBCHEM_MMFF94_ENERGY>  (1) 
20.9766

>  <PUBCHEM_FEATURE_SELFOVERLAP>  (1) 
20.297

>  <PUBCHEM_SHAPE_FINGERPRINT>  (1) 
16714656 1 18050572841615511508
18185500 45 18126001804586969783
21040471 1 17113537576063541153
23552423 10 18188216394634696542
29004967 10 18191025797082876849

>  <PUBCHEM_SHAPE_MULTIPOLES>  (1) 
149.69
2.66
1.65
0.58
0.37
0.44
0
-1.23
0
-0.17
0
0.04
0.02
0

>  <PUBCHEM_SHAPE_SELFOVERLAP>  (1) 
305.974

>  <PUBCHEM_SHAPE_VOLUME>  (1) 
82.6

>  <PUBCHEM_COORDINATE_TYPE>  (1) 
2
5
10

$$$$
