7946
     RDKit          3D

  9  8  0  0  1  0  0  0  0  0999 V2000
    0.5740    0.4640    0.2496 O   0  0  0  0  0  0  0  0  0  0  0  0
   -2.1396    0.3650   -0.4042 O   0  0  0  0  0  0  0  0  0  0  0  0
    2.4807   -0.8196    0.0182 O   0  0  0  0  0  0  0  0  0  0  0  0
   -0.1958   -0.7106    0.5017 C   0  0  0  0  0  0  0  0  0  0  0  0
   -1.6385   -0.2920    0.7552 C   0  0  0  0  0  0  0  0  0  0  0  0
   -0.0880   -1.6367   -0.7002 C   0  0  0  0  0  0  0  0  0  0  0  0
    1.9049    0.2599    0.0232 C   0  0  0  0  0  0  0  0  0  0  0  0
   -3.4799    0.7965   -0.2180 C   0  0  0  0  0  0  0  0  0  0  0  0
    2.5822    1.5735   -0.2255 C   0  0  0  0  0  0  0  0  0  0  0  0
  1  4  1  0
  1  7  1  0
  2  5  1  0
  2  8  1  0
  3  7  2  0
  4  5  1  0
  4  6  1  0
  7  9  1  0
M  END
>  <PUBCHEM_COMPOUND_CID>  (1) 
7946

>  <PUBCHEM_CONFORMER_RMSD>  (1) 
0.6

>  <PUBCHEM_CONFORMER_DIVERSEORDER>  (1) 
8
20
3
26
15
24
12
6
21
25
19
27
18
4
29
31
7
22
9
14
30
13
10
16
28
2
11
23
17
5
1
32

>  <PUBCHEM_MMFF94_PARTIAL_CHARGES>  (1) 
8
1 -0.43
2 -0.56
3 -0.57
4 0.28
5 0.28
7 0.66
8 0.28
9 0.06

>  <PUBCHEM_EFFECTIVE_ROTOR_COUNT>  (1) 
4

>  <PUBCHEM_PHARMACOPHORE_FEATURES>  (1) 
2
1 2 acceptor
1 3 acceptor

>  <PUBCHEM_HEAVY_ATOM_COUNT>  (1) 
9

>  <PUBCHEM_ATOM_DEF_STEREO_COUNT>  (1) 
0

>  <PUBCHEM_ATOM_UDEF_STEREO_COUNT>  (1) 
1

>  <PUBCHEM_BOND_DEF_STEREO_COUNT>  (1) 
0

>  <PUBCHEM_BOND_UDEF_STEREO_COUNT>  (1) 
0

>  <PUBCHEM_ISOTOPIC_ATOM_COUNT>  (1) 
0

>  <PUBCHEM_COMPONENT_COUNT>  (1) 
1

>  <PUBCHEM_CACTVS_TAUTO_COUNT>  (1) 
1

>  <PUBCHEM_CONFORMER_ID>  (1) 
00001F0A00000008

>  <PUBCHEM_MMFF94_ENERGY>  (1) 
17.1439

>  <PUBCHEM_FEATURE_SELFOVERLAP>  (1) 
10.149

>  <PUBCHEM_SHAPE_FINGERPRINT>  (1) 
10149128 76 18410857680668698773
12897270 3 18202559558321054653
14325111 11 18410011056968271945
14390081 3 18260265261241043705
15775835 57 18411982494012145141
20653085 51 18410299120308796137
21028194 46 18334579027411497253
21040471 1 18271524307564575322
21293036 1 17917712456477885113
5084963 1 18408606980477261851

>  <PUBCHEM_SHAPE_MULTIPOLES>  (1) 
167.61
4.64
1.46
0.78
1.7
0.13
0.02
-2.29
-0.43
-0.49
-0.28
0.17
0.11
0.06

>  <PUBCHEM_SHAPE_SELFOVERLAP>  (1) 
308.368

>  <PUBCHEM_SHAPE_VOLUME>  (1) 
106.6

>  <PUBCHEM_COORDINATE_TYPE>  (1) 
2
5
10

$$$$
