7948
     RDKit          3D

  9  9  0  0  0  0  0  0  0  0999 V2000
   -0.0028    2.7708    0.0003 O   0  0  0  0  0  0  0  0  0  0  0  0
   -1.2072   -0.6840    0.0001 C   0  0  0  0  0  0  0  0  0  0  0  0
    1.2086   -0.6818   -0.0003 C   0  0  0  0  0  0  0  0  0  0  0  0
    0.0013   -1.3804   -0.0001 C   0  0  0  0  0  0  0  0  0  0  0  0
   -1.2086    0.7109    0.0001 C   0  0  0  0  0  0  0  0  0  0  0  0
    1.2073    0.7131   -0.0003 C   0  0  0  0  0  0  0  0  0  0  0  0
   -0.0013    1.4094   -0.0003 C   0  0  0  0  0  0  0  0  0  0  0  0
   -2.4978   -1.4313    0.0000 C   0  0  0  0  0  0  0  0  0  0  0  0
    2.5005   -1.4266    0.0004 C   0  0  0  0  0  0  0  0  0  0  0  0
  1  7  1  0
  2  4  2  0
  2  5  1  0
  2  8  1  0
  3  4  1  0
  3  6  2  0
  3  9  1  0
  5  7  2  0
  6  7  1  0
M  END
>  <PUBCHEM_COMPOUND_CID>  (1) 
7948

>  <PUBCHEM_CONFORMER_RMSD>  (1) 
0.4

>  <PUBCHEM_CONFORMER_DIVERSEORDER>  (1) 
1

>  <PUBCHEM_MMFF94_PARTIAL_CHARGES>  (1) 
13
1 -0.53
10 0.15
11 0.15
12 0.15
19 0.45
2 -0.14
3 -0.14
4 -0.15
5 -0.15
6 -0.15
7 0.08
8 0.14
9 0.14

>  <PUBCHEM_EFFECTIVE_ROTOR_COUNT>  (1) 
0

>  <PUBCHEM_PHARMACOPHORE_FEATURES>  (1) 
2
1 1 donor
6 2 3 4 5 6 7 rings

>  <PUBCHEM_HEAVY_ATOM_COUNT>  (1) 
9

>  <PUBCHEM_ATOM_DEF_STEREO_COUNT>  (1) 
0

>  <PUBCHEM_ATOM_UDEF_STEREO_COUNT>  (1) 
0

>  <PUBCHEM_BOND_DEF_STEREO_COUNT>  (1) 
0

>  <PUBCHEM_BOND_UDEF_STEREO_COUNT>  (1) 
0

>  <PUBCHEM_ISOTOPIC_ATOM_COUNT>  (1) 
0

>  <PUBCHEM_COMPONENT_COUNT>  (1) 
1

>  <PUBCHEM_CACTVS_TAUTO_COUNT>  (1) 
10

>  <PUBCHEM_CONFORMER_ID>  (1) 
00001F0C00000001

>  <PUBCHEM_MMFF94_ENERGY>  (1) 
20.4434

>  <PUBCHEM_FEATURE_SELFOVERLAP>  (1) 
10.148

>  <PUBCHEM_SHAPE_FINGERPRINT>  (1) 
12716758 59 17693096262808563030
16945 1 18122344571199124674
18185500 45 18411140268015552279
193761 8 18410573989452180388
20871998 184 18128814144904148038
21040471 1 17474106501665150406
23552423 10 18260272910667592110
23552449 1 18339075965391597838
241688 4 18410575054598327738
2748010 2 18411694387510717518
29004967 10 18264488558243734691

>  <PUBCHEM_SHAPE_MULTIPOLES>  (1) 
179.35
2.71
2.37
0.61
0
1.5
0
-1.88
0
0
0
0
-0.03
0

>  <PUBCHEM_SHAPE_SELFOVERLAP>  (1) 
369.649

>  <PUBCHEM_SHAPE_VOLUME>  (1) 
105.4

>  <PUBCHEM_COORDINATE_TYPE>  (1) 
2
5
10

$$$$
