7951
     RDKit          3D

  9  9  0  0  0  0  0  0  0  0999 V2000
   -1.4085   -2.4315   -0.0001 N   0  0  0  0  0  0  0  0  0  0  0  0
   -1.4144    2.4280   -0.0001 N   0  0  0  0  0  0  0  0  0  0  0  0
    1.3858    0.0017    0.0001 C   0  0  0  0  0  0  0  0  0  0  0  0
   -0.7051   -1.2087    0.0000 C   0  0  0  0  0  0  0  0  0  0  0  0
   -0.7078    1.2072    0.0001 C   0  0  0  0  0  0  0  0  0  0  0  0
    0.6871    1.2089    0.0000 C   0  0  0  0  0  0  0  0  0  0  0  0
    0.6898   -1.2071    0.0001 C   0  0  0  0  0  0  0  0  0  0  0  0
   -1.4039   -0.0016    0.0001 C   0  0  0  0  0  0  0  0  0  0  0  0
    2.8771    0.0032   -0.0001 C   0  0  0  0  0  0  0  0  0  0  0  0
  1  4  1  0
  2  5  1  0
  3  6  2  0
  3  7  1  0
  3  9  1  0
  4  7  2  0
  4  8  1  0
  5  6  1  0
  5  8  2  0
M  END
>  <PUBCHEM_COMPOUND_CID>  (1) 
7951

>  <PUBCHEM_CONFORMER_RMSD>  (1) 
0.4

>  <PUBCHEM_CONFORMER_DIVERSEORDER>  (1) 
1

>  <PUBCHEM_MMFF94_PARTIAL_CHARGES>  (1) 
16
1 -0.9
10 0.15
11 0.15
12 0.15
16 0.4
17 0.4
18 0.4
19 0.4
2 -0.9
3 -0.14
4 0.1
5 0.1
6 -0.15
7 -0.15
8 -0.15
9 0.14

>  <PUBCHEM_EFFECTIVE_ROTOR_COUNT>  (1) 
0

>  <PUBCHEM_PHARMACOPHORE_FEATURES>  (1) 
5
1 1 cation
1 1 donor
1 2 cation
1 2 donor
6 3 4 5 6 7 8 rings

>  <PUBCHEM_HEAVY_ATOM_COUNT>  (1) 
9

>  <PUBCHEM_ATOM_DEF_STEREO_COUNT>  (1) 
0

>  <PUBCHEM_ATOM_UDEF_STEREO_COUNT>  (1) 
0

>  <PUBCHEM_BOND_DEF_STEREO_COUNT>  (1) 
0

>  <PUBCHEM_BOND_UDEF_STEREO_COUNT>  (1) 
0

>  <PUBCHEM_ISOTOPIC_ATOM_COUNT>  (1) 
0

>  <PUBCHEM_COMPONENT_COUNT>  (1) 
1

>  <PUBCHEM_CACTVS_TAUTO_COUNT>  (1) 
1

>  <PUBCHEM_CONFORMER_ID>  (1) 
00001F0F00000001

>  <PUBCHEM_MMFF94_ENERGY>  (1) 
41.6087

>  <PUBCHEM_FEATURE_SELFOVERLAP>  (1) 
25.371

>  <PUBCHEM_SHAPE_FINGERPRINT>  (1) 
12716758 59 18341336570257472598
16945 1 18410575089132113030
18185500 45 17906455776591584926
20871998 184 18272936067641535950
21040471 1 18266459793756051200
23552423 10 18116152354003649734
23552449 1 18339357586455075910
2748010 2 18123746727591807964
29004967 10 17615969245487255914

>  <PUBCHEM_SHAPE_MULTIPOLES>  (1) 
175.25
2.6
2.33
0.6
1.88
0
0
0
0
-1.6
0
0.03
0
0

>  <PUBCHEM_SHAPE_SELFOVERLAP>  (1) 
362.257

>  <PUBCHEM_SHAPE_VOLUME>  (1) 
102.3

>  <PUBCHEM_COORDINATE_TYPE>  (1) 
2
5
10

$$$$
