7958
     RDKit          3D

 10  9  0  0  0  0  0  0  0  0999 V2000
    0.0003   -0.3516    1.6193 O   0  0  0  0  0  0  0  0  0  0  0  0
   -2.4522    0.0548    0.1001 C   0  0  0  0  0  0  0  0  0  0  0  0
    2.4521    0.0549    0.0999 C   0  0  0  0  0  0  0  0  0  0  0  0
   -1.2888   -0.8344   -0.3639 C   0  0  0  0  0  0  0  0  0  0  0  0
    1.2888   -0.8344   -0.3640 C   0  0  0  0  0  0  0  0  0  0  0  0
    0.0001   -0.6174    0.4184 C   0  0  0  0  0  0  0  0  0  0  0  0
   -2.1163    1.5401   -0.0570 C   0  0  0  0  0  0  0  0  0  0  0  0
   -3.7149   -0.2761   -0.6978 C   0  0  0  0  0  0  0  0  0  0  0  0
    2.1160    1.5401   -0.0572 C   0  0  0  0  0  0  0  0  0  0  0  0
    3.7150   -0.2759   -0.6977 C   0  0  0  0  0  0  0  0  0  0  0  0
  1  6  2  0
  2  4  1  0
  2  7  1  0
  2  8  1  0
  3  5  1  0
  3  9  1  0
  3 10  1  0
  4  6  1  0
  5  6  1  0
M  END
>  <PUBCHEM_COMPOUND_CID>  (1) 
7958

>  <PUBCHEM_CONFORMER_RMSD>  (1) 
0.6

>  <PUBCHEM_CONFORMER_DIVERSEORDER>  (1) 
3
16
6
15
5
13
4
1
2
14
7
11
12
8
9
10

>  <PUBCHEM_MMFF94_PARTIAL_CHARGES>  (1) 
4
1 -0.57
4 0.06
5 0.06
6 0.45

>  <PUBCHEM_EFFECTIVE_ROTOR_COUNT>  (1) 
4

>  <PUBCHEM_PHARMACOPHORE_FEATURES>  (1) 
3
1 1 acceptor
3 2 7 8 hydrophobe
3 3 9 10 hydrophobe

>  <PUBCHEM_HEAVY_ATOM_COUNT>  (1) 
10

>  <PUBCHEM_ATOM_DEF_STEREO_COUNT>  (1) 
0

>  <PUBCHEM_ATOM_UDEF_STEREO_COUNT>  (1) 
0

>  <PUBCHEM_BOND_DEF_STEREO_COUNT>  (1) 
0

>  <PUBCHEM_BOND_UDEF_STEREO_COUNT>  (1) 
0

>  <PUBCHEM_ISOTOPIC_ATOM_COUNT>  (1) 
0

>  <PUBCHEM_COMPONENT_COUNT>  (1) 
1

>  <PUBCHEM_CACTVS_TAUTO_COUNT>  (1) 
2

>  <PUBCHEM_CONFORMER_ID>  (1) 
00001F1600000003

>  <PUBCHEM_MMFF94_ENERGY>  (1) 
8.8857

>  <PUBCHEM_FEATURE_SELFOVERLAP>  (1) 
15.223

>  <PUBCHEM_SHAPE_FINGERPRINT>  (1) 
10219947 1 14923942332034956510
11062470 55 11455890264921909967
12162725 195 18410012139120890436
12897270 3 18341610434209178439
12932764 1 18201717344893054210
14325111 11 18411419501008557612
14390081 3 18334292067640132853
15310529 11 18131064901188239503
15775835 57 17968942972355685933
19973954 147 18263932196886196300
20653085 51 18410867559161973488
20671657 53 17203340974821195524
20711983 171 18271243807587729957
21028194 46 17821447967008225007
21119208 17 18272932717376842213
21293036 1 16917345960994513254
22485316 2 13614239261073431205
23235685 24 16515402980065201782
23402539 116 18411970373709264639
23402655 69 18342172233174947573
23552423 10 18126845993616069599
29004967 10 9295294915402347022
305870 269 17750793255318208395
5084963 1 18131351912061147051
57812782 119 18413669123447929620

>  <PUBCHEM_SHAPE_MULTIPOLES>  (1) 
199.93
5.95
1.3
0.95
0
0.58
-0.26
0.28
1.81
0
0.08
0
-0.11
0

>  <PUBCHEM_SHAPE_SELFOVERLAP>  (1) 
364.285

>  <PUBCHEM_SHAPE_VOLUME>  (1) 
129.1

>  <PUBCHEM_COORDINATE_TYPE>  (1) 
2
5
10

$$$$
