7959
     RDKit          3D

 10  9  0  0  1  0  0  0  0  0999 V2000
    0.6302    0.2828   -0.3122 O   0  0  0  0  0  0  0  0  0  0  0  0
    2.2416   -0.0611    1.3071 O   0  0  0  0  0  0  0  0  0  0  0  0
   -2.3722    0.2408   -0.1956 C   0  0  0  0  0  0  0  0  0  0  0  0
   -1.4266   -0.8706   -0.6855 C   0  0  0  0  0  0  0  0  0  0  0  0
   -0.0546   -0.9329   -0.0036 C   0  0  0  0  0  0  0  0  0  0  0  0
   -2.6384    0.1589    1.3077 C   0  0  0  0  0  0  0  0  0  0  0  0
   -1.7825    1.6108   -0.5424 C   0  0  0  0  0  0  0  0  0  0  0  0
    0.8012   -2.1019   -0.4721 C   0  0  0  0  0  0  0  0  0  0  0  0
    1.8684    0.4177    0.2447 C   0  0  0  0  0  0  0  0  0  0  0  0
    2.7328    1.2555   -0.6480 C   0  0  0  0  0  0  0  0  0  0  0  0
  1  5  1  0
  1  9  1  0
  2  9  2  0
  3  4  1  0
  3  6  1  0
  3  7  1  0
  4  5  1  0
  5  8  1  0
  9 10  1  0
M  END
>  <PUBCHEM_COMPOUND_CID>  (1) 
7959

>  <PUBCHEM_CONFORMER_RMSD>  (1) 
0.6

>  <PUBCHEM_CONFORMER_DIVERSEORDER>  (1) 
1
6
3
4
2
5

>  <PUBCHEM_MMFF94_PARTIAL_CHARGES>  (1) 
5
1 -0.43
10 0.06
2 -0.57
5 0.28
9 0.66

>  <PUBCHEM_EFFECTIVE_ROTOR_COUNT>  (1) 
4

>  <PUBCHEM_PHARMACOPHORE_FEATURES>  (1) 
2
1 2 acceptor
3 3 6 7 hydrophobe

>  <PUBCHEM_HEAVY_ATOM_COUNT>  (1) 
10

>  <PUBCHEM_ATOM_DEF_STEREO_COUNT>  (1) 
0

>  <PUBCHEM_ATOM_UDEF_STEREO_COUNT>  (1) 
1

>  <PUBCHEM_BOND_DEF_STEREO_COUNT>  (1) 
0

>  <PUBCHEM_BOND_UDEF_STEREO_COUNT>  (1) 
0

>  <PUBCHEM_ISOTOPIC_ATOM_COUNT>  (1) 
0

>  <PUBCHEM_COMPONENT_COUNT>  (1) 
1

>  <PUBCHEM_CACTVS_TAUTO_COUNT>  (1) 
1

>  <PUBCHEM_CONFORMER_ID>  (1) 
00001F1700000001

>  <PUBCHEM_MMFF94_ENERGY>  (1) 
17.8649

>  <PUBCHEM_FEATURE_SELFOVERLAP>  (1) 
10.148

>  <PUBCHEM_SHAPE_FINGERPRINT>  (1) 
10857977 72 17896340102618567603
14390081 3 17346594183939585289
14648413 74 18047759195723688813
15775835 57 18342738541618616825
19973954 147 18192713345599951837
20653085 51 15769508606818141043
21028194 46 18341887506712567898
21040471 1 18342730862422832894
230 275 18271240525947645116
23235685 24 18342746238157767697
23552423 10 18339077082025326119
369184 2 16877935045060682413
5084963 1 18201715180160783390
81228 2 17694494149924860002

>  <PUBCHEM_SHAPE_MULTIPOLES>  (1) 
194.06
4.12
1.71
1.07
0.29
0.47
-0.31
-1.64
-0.64
0.32
0.49
-0.13
-0.05
-0.08

>  <PUBCHEM_SHAPE_SELFOVERLAP>  (1) 
358.385

>  <PUBCHEM_SHAPE_VOLUME>  (1) 
123.3

>  <PUBCHEM_COORDINATE_TYPE>  (1) 
2
5
10

$$$$
