7963
     RDKit          3D

  7  7  0  0  0  0  0  0  0  0999 V2000
   -1.8145    0.0000    0.0001 N   0  0  0  0  0  0  0  0  0  0  0  0
    0.9808    0.0000   -0.0002 C   0  0  0  0  0  0  0  0  0  0  0  0
    0.2827    1.2026    0.0000 C   0  0  0  0  0  0  0  0  0  0  0  0
    0.2828   -1.2026   -0.0001 C   0  0  0  0  0  0  0  0  0  0  0  0
    2.4718    0.0000    0.0002 C   0  0  0  0  0  0  0  0  0  0  0  0
   -1.1018    1.1488    0.0000 C   0  0  0  0  0  0  0  0  0  0  0  0
   -1.1017   -1.1488    0.0000 C   0  0  0  0  0  0  0  0  0  0  0  0
  1  6  2  0
  1  7  1  0
  2  3  2  0
  2  4  1  0
  2  5  1  0
  3  6  1  0
  4  7  2  0
M  END
>  <PUBCHEM_COMPOUND_CID>  (1) 
7963

>  <PUBCHEM_CONFORMER_RMSD>  (1) 
0.4

>  <PUBCHEM_CONFORMER_DIVERSEORDER>  (1) 
1

>  <PUBCHEM_MMFF94_PARTIAL_CHARGES>  (1) 
11
1 -0.62
13 0.15
14 0.15
2 -0.14
3 -0.15
4 -0.15
5 0.14
6 0.16
7 0.16
8 0.15
9 0.15

>  <PUBCHEM_EFFECTIVE_ROTOR_COUNT>  (1) 
0

>  <PUBCHEM_PHARMACOPHORE_FEATURES>  (1) 
2
1 1 acceptor
6 1 2 3 4 6 7 rings

>  <PUBCHEM_HEAVY_ATOM_COUNT>  (1) 
7

>  <PUBCHEM_ATOM_DEF_STEREO_COUNT>  (1) 
0

>  <PUBCHEM_ATOM_UDEF_STEREO_COUNT>  (1) 
0

>  <PUBCHEM_BOND_DEF_STEREO_COUNT>  (1) 
0

>  <PUBCHEM_BOND_UDEF_STEREO_COUNT>  (1) 
0

>  <PUBCHEM_ISOTOPIC_ATOM_COUNT>  (1) 
0

>  <PUBCHEM_COMPONENT_COUNT>  (1) 
1

>  <PUBCHEM_CACTVS_TAUTO_COUNT>  (1) 
1

>  <PUBCHEM_CONFORMER_ID>  (1) 
00001F1B00000001

>  <PUBCHEM_MMFF94_ENERGY>  (1) 
15.9841

>  <PUBCHEM_FEATURE_SELFOVERLAP>  (1) 
10.148

>  <PUBCHEM_SHAPE_FINGERPRINT>  (1) 
16714656 1 18410578387703919702
18185500 45 18335699485383733770
20096714 4 18266742376591575218
21040471 1 18266458702639211684
23552423 10 18260554390076452622
29004967 10 18261682548703186698

>  <PUBCHEM_SHAPE_MULTIPOLES>  (1) 
139.08
2.4
1.42
0.6
1.03
0
0
0
0
-0.34
0
0.02
0
0

>  <PUBCHEM_SHAPE_SELFOVERLAP>  (1) 
283.758

>  <PUBCHEM_SHAPE_VOLUME>  (1) 
80.6

>  <PUBCHEM_COORDINATE_TYPE>  (1) 
2
5
10

$$$$
