7971
     RDKit          3D

  7  7  0  0  0  0  0  0  0  0999 V2000
   -2.3519   -0.0466    0.0000 O   0  0  0  0  0  0  0  0  0  0  0  0
    1.1054   -1.1998    0.0000 N   0  0  0  0  0  0  0  0  0  0  0  0
   -0.9968   -0.0058    0.0000 C   0  0  0  0  0  0  0  0  0  0  0  0
   -0.3165    1.2068    0.0000 C   0  0  0  0  0  0  0  0  0  0  0  0
    1.0740    1.2176   -0.0001 C   0  0  0  0  0  0  0  0  0  0  0  0
   -0.2462   -1.1705    0.0000 C   0  0  0  0  0  0  0  0  0  0  0  0
    1.7320   -0.0018    0.0001 C   0  0  0  0  0  0  0  0  0  0  0  0
  1  3  1  0
  2  6  2  0
  2  7  1  0
  3  4  2  0
  3  6  1  0
  4  5  1  0
  5  7  2  0
M  END
>  <PUBCHEM_COMPOUND_CID>  (1) 
7971

>  <PUBCHEM_CONFORMER_RMSD>  (1) 
0.4

>  <PUBCHEM_CONFORMER_DIVERSEORDER>  (1) 
1

>  <PUBCHEM_MMFF94_PARTIAL_CHARGES>  (1) 
12
1 -0.53
10 0.15
11 0.15
12 0.45
2 -0.62
3 0.08
4 -0.15
5 -0.15
6 0.16
7 0.16
8 0.15
9 0.15

>  <PUBCHEM_EFFECTIVE_ROTOR_COUNT>  (1) 
0

>  <PUBCHEM_PHARMACOPHORE_FEATURES>  (1) 
3
1 1 donor
1 2 acceptor
6 2 3 4 5 6 7 rings

>  <PUBCHEM_HEAVY_ATOM_COUNT>  (1) 
7

>  <PUBCHEM_ATOM_DEF_STEREO_COUNT>  (1) 
0

>  <PUBCHEM_ATOM_UDEF_STEREO_COUNT>  (1) 
0

>  <PUBCHEM_BOND_DEF_STEREO_COUNT>  (1) 
0

>  <PUBCHEM_BOND_UDEF_STEREO_COUNT>  (1) 
0

>  <PUBCHEM_ISOTOPIC_ATOM_COUNT>  (1) 
0

>  <PUBCHEM_COMPONENT_COUNT>  (1) 
1

>  <PUBCHEM_CACTVS_TAUTO_COUNT>  (1) 
3

>  <PUBCHEM_CONFORMER_ID>  (1) 
00001F2300000001

>  <PUBCHEM_MMFF94_ENERGY>  (1) 
15.5998

>  <PUBCHEM_FEATURE_SELFOVERLAP>  (1) 
15.223

>  <PUBCHEM_SHAPE_FINGERPRINT>  (1) 
18185500 45 18413384341230414919
20096714 4 18339361992901637032
21040471 1 18194682798331646948
23552423 10 17756721732195747358
29004967 10 18334019384382336577

>  <PUBCHEM_SHAPE_MULTIPOLES>  (1) 
133.21
2.16
1.42
0.59
0.68
0.01
0
-0.03
0
-0.27
0
-0.02
-0.02
0

>  <PUBCHEM_SHAPE_SELFOVERLAP>  (1) 
275.227

>  <PUBCHEM_SHAPE_VOLUME>  (1) 
75.4

>  <PUBCHEM_COORDINATE_TYPE>  (1) 
2
5
10

$$$$
