7994
     RDKit          3D

  7  6  0  0  0  0  0  0  0  0999 V2000
    3.2506    0.2682   -0.1291 O   0  0  0  0  0  0  0  0  0  0  0  0
   -0.3213   -0.5853    0.1570 N   0  0  0  0  0  0  0  0  0  0  0  0
   -1.5306    0.0318   -0.3435 C   0  0  0  0  0  0  0  0  0  0  0  0
    0.8625    0.1773   -0.2288 C   0  0  0  0  0  0  0  0  0  0  0  0
   -1.6552    1.4345    0.2365 C   0  0  0  0  0  0  0  0  0  0  0  0
   -2.7315   -0.8297    0.0250 C   0  0  0  0  0  0  0  0  0  0  0  0
    2.1255   -0.4968    0.2829 C   0  0  0  0  0  0  0  0  0  0  0  0
  1  7  1  0
  2  3  1  0
  2  4  1  0
  3  5  1  0
  3  6  1  0
  4  7  1  0
M  END
>  <PUBCHEM_COMPOUND_CID>  (1) 
7994

>  <PUBCHEM_CONFORMER_RMSD>  (1) 
0.4

>  <PUBCHEM_CONFORMER_DIVERSEORDER>  (1) 
1
10
14
6
7
13
5
3
2
8
12
11
4
9

>  <PUBCHEM_MMFF94_PARTIAL_CHARGES>  (1) 
7
1 -0.68
2 -0.9
20 0.4
3 0.27
4 0.27
7 0.28
9 0.36

>  <PUBCHEM_EFFECTIVE_ROTOR_COUNT>  (1) 
3

>  <PUBCHEM_PHARMACOPHORE_FEATURES>  (1) 
5
1 1 acceptor
1 1 donor
1 2 cation
1 2 donor
3 3 5 6 hydrophobe

>  <PUBCHEM_HEAVY_ATOM_COUNT>  (1) 
7

>  <PUBCHEM_ATOM_DEF_STEREO_COUNT>  (1) 
0

>  <PUBCHEM_ATOM_UDEF_STEREO_COUNT>  (1) 
0

>  <PUBCHEM_BOND_DEF_STEREO_COUNT>  (1) 
0

>  <PUBCHEM_BOND_UDEF_STEREO_COUNT>  (1) 
0

>  <PUBCHEM_ISOTOPIC_ATOM_COUNT>  (1) 
0

>  <PUBCHEM_COMPONENT_COUNT>  (1) 
1

>  <PUBCHEM_CACTVS_TAUTO_COUNT>  (1) 
1

>  <PUBCHEM_CONFORMER_ID>  (1) 
00001F3A00000001

>  <PUBCHEM_MMFF94_ENERGY>  (1) 
-0.5795

>  <PUBCHEM_FEATURE_SELFOVERLAP>  (1) 
25.371

>  <PUBCHEM_SHAPE_FINGERPRINT>  (1) 
10857977 72 18342447188348779979
12932764 1 17275094025217440110
14325111 11 18410011009728997358
14390081 3 18342734109470836720
16714656 1 18272649069299790279
23552423 10 18190181191653783682
29004967 10 16343706534010928426
5460574 1 10159701300146817758

>  <PUBCHEM_SHAPE_MULTIPOLES>  (1) 
133.21
4.5
1.11
0.64
2.39
0.3
0
-0.36
0.03
-0.71
0.09
-0.04
0.01
-0.13

>  <PUBCHEM_SHAPE_SELFOVERLAP>  (1) 
231.629

>  <PUBCHEM_SHAPE_VOLUME>  (1) 
89.6

>  <PUBCHEM_COORDINATE_TYPE>  (1) 
2
5
10

$$$$
