800
     RDKit          3D

 12 13  0  0  0  0  0  0  0  0999 V2000
    2.7583   -0.7881    1.3543 O   0  0  0  0  0  0  0  0  0  0  0  0
   -0.3475    2.0309    0.1832 N   0  0  0  0  0  0  0  0  0  0  0  0
   -0.2587   -0.1451   -0.3005 C   0  0  0  0  0  0  0  0  0  0  0  0
    1.0265    0.4299   -0.5067 C   0  0  0  0  0  0  0  0  0  0  0  0
   -1.1021    0.8805    0.1320 C   0  0  0  0  0  0  0  0  0  0  0  0
    0.9400    1.7687   -0.2011 C   0  0  0  0  0  0  0  0  0  0  0  0
    2.2418   -0.2732   -0.9654 C   0  0  0  0  0  0  0  0  0  0  0  0
   -0.7871   -1.4439   -0.4407 C   0  0  0  0  0  0  0  0  0  0  0  0
   -2.4528    0.6716    0.4327 C   0  0  0  0  0  0  0  0  0  0  0  0
   -2.1364   -1.6677   -0.1437 C   0  0  0  0  0  0  0  0  0  0  0  0
   -2.9546   -0.6248    0.2861 C   0  0  0  0  0  0  0  0  0  0  0  0
    3.0725   -0.8388    0.1698 C   0  0  0  0  0  0  0  0  0  0  0  0
  1 12  2  0
  2  5  1  0
  2  6  1  0
  3  4  1  0
  3  5  2  0
  3  8  1  0
  4  6  2  0
  4  7  1  0
  5  9  1  0
  7 12  1  0
  8 10  2  0
  9 11  2  0
 10 11  1  0
M  END
>  <PUBCHEM_COMPOUND_CID>  (1) 
800

>  <PUBCHEM_CONFORMER_RMSD>  (1) 
0.6

>  <PUBCHEM_CONFORMER_DIVERSEORDER>  (1) 
1
4
3
2

>  <PUBCHEM_MMFF94_PARTIAL_CHARGES>  (1) 
18
1 -0.57
10 -0.15
11 -0.15
12 0.45
13 0.15
14 0.27
17 0.15
18 0.15
19 0.15
2 0.03
20 0.15
21 0.06
4 -0.18
5 -0.15
6 -0.3
7 0.24
8 -0.15
9 -0.15

>  <PUBCHEM_EFFECTIVE_ROTOR_COUNT>  (1) 
2

>  <PUBCHEM_PHARMACOPHORE_FEATURES>  (1) 
5
1 1 acceptor
1 2 cation
1 2 donor
5 2 3 4 5 6 rings
6 3 5 8 9 10 11 rings

>  <PUBCHEM_HEAVY_ATOM_COUNT>  (1) 
12

>  <PUBCHEM_ATOM_DEF_STEREO_COUNT>  (1) 
0

>  <PUBCHEM_ATOM_UDEF_STEREO_COUNT>  (1) 
0

>  <PUBCHEM_BOND_DEF_STEREO_COUNT>  (1) 
0

>  <PUBCHEM_BOND_UDEF_STEREO_COUNT>  (1) 
0

>  <PUBCHEM_ISOTOPIC_ATOM_COUNT>  (1) 
0

>  <PUBCHEM_COMPONENT_COUNT>  (1) 
1

>  <PUBCHEM_CACTVS_TAUTO_COUNT>  (1) 
2

>  <PUBCHEM_CONFORMER_ID>  (1) 
0000032000000001

>  <PUBCHEM_MMFF94_ENERGY>  (1) 
16.7601

>  <PUBCHEM_FEATURE_SELFOVERLAP>  (1) 
25.463

>  <PUBCHEM_SHAPE_FINGERPRINT>  (1) 
10130415 120 18408890654640693235
10857977 72 18201719539605271276
12202030 40 16516534459155603027
12382932 28 18342457010865360130
15076042 46 18050000000558291866
15310529 11 17240492406896624213
15375462 189 18187088368676760210
16945 1 18341059518806920061
20645477 70 18052258689790255119
20653091 64 18192151709800839584
20871998 184 18272931579305668718
21501502 16 18197504128331451557
21501925 9 18270394018153702803
232386 152 18409171025858509158
23388829 49 17411031243263474700
23463225 33 18409172086367251998
23552423 10 17975140043333346637
23559900 14 18200039426589586006
2748010 2 18341618182462211805
369184 2 18410571777543535764
53812654 25 18272649082052784487
7364860 26 18056485186332207684

>  <PUBCHEM_SHAPE_MULTIPOLES>  (1) 
236.1
4.36
1.83
0.88
0.87
0.44
0.1
-1.68
0.81
-0.3
-0.01
0.49
-0.15
-0.39

>  <PUBCHEM_SHAPE_SELFOVERLAP>  (1) 
513.53

>  <PUBCHEM_SHAPE_VOLUME>  (1) 
129.8

>  <PUBCHEM_COORDINATE_TYPE>  (1) 
2
5
10

$$$$
