8018
     RDKit          3D

  5  4  0  0  0  0  0  0  0  0999 V2000
    1.1866    0.4695   -0.0080 O   0  0  0  0  0  0  0  0  0  0  0  0
   -2.4082   -0.3144   -0.0029 N   0  0  0  0  0  0  0  0  0  0  0  0
    0.0390   -0.3695   -0.0013 C   0  0  0  0  0  0  0  0  0  0  0  0
   -1.2051    0.5043    0.0074 C   0  0  0  0  0  0  0  0  0  0  0  0
    2.3877   -0.2899    0.0048 C   0  0  0  0  0  0  0  0  0  0  0  0
  1  3  1  0
  1  5  1  0
  2  4  1  0
  3  4  1  0
M  END
>  <PUBCHEM_COMPOUND_CID>  (1) 
8018

>  <PUBCHEM_CONFORMER_RMSD>  (1) 
0.4

>  <PUBCHEM_CONFORMER_DIVERSEORDER>  (1) 
1
5
7
6
3
4
2

>  <PUBCHEM_MMFF94_PARTIAL_CHARGES>  (1) 
7
1 -0.56
10 0.36
11 0.36
2 -0.99
3 0.28
4 0.27
5 0.28

>  <PUBCHEM_EFFECTIVE_ROTOR_COUNT>  (1) 
2

>  <PUBCHEM_PHARMACOPHORE_FEATURES>  (1) 
3
1 1 acceptor
1 2 cation
1 2 donor

>  <PUBCHEM_HEAVY_ATOM_COUNT>  (1) 
5

>  <PUBCHEM_ATOM_DEF_STEREO_COUNT>  (1) 
0

>  <PUBCHEM_ATOM_UDEF_STEREO_COUNT>  (1) 
0

>  <PUBCHEM_BOND_DEF_STEREO_COUNT>  (1) 
0

>  <PUBCHEM_BOND_UDEF_STEREO_COUNT>  (1) 
0

>  <PUBCHEM_ISOTOPIC_ATOM_COUNT>  (1) 
0

>  <PUBCHEM_COMPONENT_COUNT>  (1) 
1

>  <PUBCHEM_CACTVS_TAUTO_COUNT>  (1) 
1

>  <PUBCHEM_CONFORMER_ID>  (1) 
00001F5200000001

>  <PUBCHEM_MMFF94_ENERGY>  (1) 
2.4097

>  <PUBCHEM_FEATURE_SELFOVERLAP>  (1) 
15.223

>  <PUBCHEM_SHAPE_FINGERPRINT>  (1) 
139733 1 9295288339358945921
16714656 1 18410013238563784055
20096714 4 18410575110596568904
29004967 10 15482674588927329902
5460574 1 9223231845001340386

>  <PUBCHEM_SHAPE_MULTIPOLES>  (1) 
92.05
3.39
0.73
0.58
0.19
0.01
0
-0.36
0
-0.03
0
0.02
0
0

>  <PUBCHEM_SHAPE_SELFOVERLAP>  (1) 
152.281

>  <PUBCHEM_SHAPE_VOLUME>  (1) 
64.2

>  <PUBCHEM_COORDINATE_TYPE>  (1) 
2
5
10

$$$$
