8019
     RDKit          3D

  5  4  0  0  0  0  0  0  0  0999 V2000
   -1.1790    0.4719    0.0089 O   0  0  0  0  0  0  0  0  0  0  0  0
    2.3670   -0.3250    0.0038 O   0  0  0  0  0  0  0  0  0  0  0  0
   -0.0268   -0.3622    0.0005 C   0  0  0  0  0  0  0  0  0  0  0  0
    1.2147    0.5089   -0.0083 C   0  0  0  0  0  0  0  0  0  0  0  0
   -2.3758   -0.2936   -0.0049 C   0  0  0  0  0  0  0  0  0  0  0  0
  1  3  1  0
  1  5  1  0
  2  4  1  0
  3  4  1  0
M  END
>  <PUBCHEM_COMPOUND_CID>  (1) 
8019

>  <PUBCHEM_CONFORMER_RMSD>  (1) 
0.4

>  <PUBCHEM_CONFORMER_DIVERSEORDER>  (1) 
3
8
5
6
4
1
7
2

>  <PUBCHEM_MMFF94_PARTIAL_CHARGES>  (1) 
6
1 -0.56
13 0.4
2 -0.68
3 0.28
4 0.28
5 0.28

>  <PUBCHEM_EFFECTIVE_ROTOR_COUNT>  (1) 
2

>  <PUBCHEM_PHARMACOPHORE_FEATURES>  (1) 
3
1 1 acceptor
1 2 acceptor
1 2 donor

>  <PUBCHEM_HEAVY_ATOM_COUNT>  (1) 
5

>  <PUBCHEM_ATOM_DEF_STEREO_COUNT>  (1) 
0

>  <PUBCHEM_ATOM_UDEF_STEREO_COUNT>  (1) 
0

>  <PUBCHEM_BOND_DEF_STEREO_COUNT>  (1) 
0

>  <PUBCHEM_BOND_UDEF_STEREO_COUNT>  (1) 
0

>  <PUBCHEM_ISOTOPIC_ATOM_COUNT>  (1) 
0

>  <PUBCHEM_COMPONENT_COUNT>  (1) 
1

>  <PUBCHEM_CACTVS_TAUTO_COUNT>  (1) 
1

>  <PUBCHEM_CONFORMER_ID>  (1) 
00001F5300000003

>  <PUBCHEM_MMFF94_ENERGY>  (1) 
7.3127

>  <PUBCHEM_FEATURE_SELFOVERLAP>  (1) 
15.223

>  <PUBCHEM_SHAPE_FINGERPRINT>  (1) 
139733 1 9223231849122338305
16714656 1 18408605872375673375
20096714 4 18410293652746992904
29004967 10 14261356876787730735
5460574 1 9223234043887445890

>  <PUBCHEM_SHAPE_MULTIPOLES>  (1) 
91.16
3.31
0.73
0.58
0.24
0.02
0
-0.35
0
-0.03
0
0.03
0
0

>  <PUBCHEM_SHAPE_SELFOVERLAP>  (1) 
151.524

>  <PUBCHEM_SHAPE_VOLUME>  (1) 
63.3

>  <PUBCHEM_COORDINATE_TYPE>  (1) 
2
5
10

$$$$
