8024
     RDKit          3D

  5  4  0  0  0  0  0  0  0  0999 V2000
    0.0061   -0.3430    0.0000 O   0  0  0  0  0  0  0  0  0  0  0  0
   -1.1671    0.3587    0.0000 C   0  0  0  0  0  0  0  0  0  0  0  0
    1.1628    0.3560    0.0000 C   0  0  0  0  0  0  0  0  0  0  0  0
   -2.3850   -0.1872    0.0000 C   0  0  0  0  0  0  0  0  0  0  0  0
    2.3832   -0.1845    0.0000 C   0  0  0  0  0  0  0  0  0  0  0  0
  1  2  1  0
  1  3  1  0
  2  4  2  0
  3  5  2  0
M  END
>  <PUBCHEM_COMPOUND_CID>  (1) 
8024

>  <PUBCHEM_CONFORMER_RMSD>  (1) 
0.4

>  <PUBCHEM_CONFORMER_DIVERSEORDER>  (1) 
1
4
5
3
6
2
7

>  <PUBCHEM_MMFF94_PARTIAL_CHARGES>  (1) 
11
1 -0.15
10 0.15
11 0.15
2 -0.07
3 -0.07
4 -0.3
5 -0.3
6 0.15
7 0.15
8 0.15
9 0.15

>  <PUBCHEM_EFFECTIVE_ROTOR_COUNT>  (1) 
2

>  <PUBCHEM_PHARMACOPHORE_FEATURES>  (1) 
1
1 1 acceptor

>  <PUBCHEM_HEAVY_ATOM_COUNT>  (1) 
5

>  <PUBCHEM_ATOM_DEF_STEREO_COUNT>  (1) 
0

>  <PUBCHEM_ATOM_UDEF_STEREO_COUNT>  (1) 
0

>  <PUBCHEM_BOND_DEF_STEREO_COUNT>  (1) 
0

>  <PUBCHEM_BOND_UDEF_STEREO_COUNT>  (1) 
0

>  <PUBCHEM_ISOTOPIC_ATOM_COUNT>  (1) 
0

>  <PUBCHEM_COMPONENT_COUNT>  (1) 
1

>  <PUBCHEM_CACTVS_TAUTO_COUNT>  (1) 
1

>  <PUBCHEM_CONFORMER_ID>  (1) 
00001F5800000001

>  <PUBCHEM_MMFF94_ENERGY>  (1) 
6.745

>  <PUBCHEM_FEATURE_SELFOVERLAP>  (1) 
5.074

>  <PUBCHEM_SHAPE_FINGERPRINT>  (1) 
139733 1 18410856563934789350
14390081 3 11025802010993415958
16714656 1 8935001477339336619
20096714 4 9151163260110544430
29004967 10 14836127671213704430
5460574 1 18410856555471442309

>  <PUBCHEM_SHAPE_MULTIPOLES>  (1) 
97.03
3.58
0.68
0.6
0.01
0.03
0
-0.3
0
0
0
0
0.01
0

>  <PUBCHEM_SHAPE_SELFOVERLAP>  (1) 
169.199

>  <PUBCHEM_SHAPE_VOLUME>  (1) 
64

>  <PUBCHEM_COORDINATE_TYPE>  (1) 
2
5
10

$$$$
