8028
     RDKit          3D

  5  5  0  0  0  0  0  0  0  0999 V2000
    1.2328   -0.0005    0.0000 O   0  0  0  0  0  0  0  0  0  0  0  0
   -1.0107   -0.7202   -0.2205 C   0  0  0  0  0  0  0  0  0  0  0  0
   -1.0102    0.7210    0.2205 C   0  0  0  0  0  0  0  0  0  0  0  0
    0.3936   -1.1560    0.1374 C   0  0  0  0  0  0  0  0  0  0  0  0
    0.3946    1.1557   -0.1375 C   0  0  0  0  0  0  0  0  0  0  0  0
  1  4  1  0
  1  5  1  0
  2  3  1  0
  2  4  1  0
  3  5  1  0
M  END
>  <PUBCHEM_COMPOUND_CID>  (1) 
8028

>  <PUBCHEM_CONFORMER_RMSD>  (1) 
0.4

>  <PUBCHEM_CONFORMER_DIVERSEORDER>  (1) 
1

>  <PUBCHEM_MMFF94_PARTIAL_CHARGES>  (1) 
3
1 -0.56
4 0.28
5 0.28

>  <PUBCHEM_EFFECTIVE_ROTOR_COUNT>  (1) 
1

>  <PUBCHEM_PHARMACOPHORE_FEATURES>  (1) 
2
1 1 acceptor
5 1 2 3 4 5 rings

>  <PUBCHEM_HEAVY_ATOM_COUNT>  (1) 
5

>  <PUBCHEM_ATOM_DEF_STEREO_COUNT>  (1) 
0

>  <PUBCHEM_ATOM_UDEF_STEREO_COUNT>  (1) 
0

>  <PUBCHEM_BOND_DEF_STEREO_COUNT>  (1) 
0

>  <PUBCHEM_BOND_UDEF_STEREO_COUNT>  (1) 
0

>  <PUBCHEM_ISOTOPIC_ATOM_COUNT>  (1) 
0

>  <PUBCHEM_COMPONENT_COUNT>  (1) 
1

>  <PUBCHEM_CACTVS_TAUTO_COUNT>  (1) 
1

>  <PUBCHEM_CONFORMER_ID>  (1) 
00001F5C00000001

>  <PUBCHEM_MMFF94_ENERGY>  (1) 
4.873

>  <PUBCHEM_FEATURE_SELFOVERLAP>  (1) 
10.148

>  <PUBCHEM_SHAPE_FINGERPRINT>  (1) 
139733 1 8934459422386089895
16714656 1 17620205230145170438
20096714 4 18411706452110905065
21015797 1 9151180852212108359
21040471 1 18195529186098808441
5943 1 13065861874110754583

>  <PUBCHEM_SHAPE_MULTIPOLES>  (1) 
97.03
1.38
1.32
0.63
0
0.04
0
-0.03
0
0
0
0
0.04
0.09

>  <PUBCHEM_SHAPE_SELFOVERLAP>  (1) 
183.391

>  <PUBCHEM_SHAPE_VOLUME>  (1) 
62.4

>  <PUBCHEM_COORDINATE_TYPE>  (1) 
2
5
10

$$$$
