8053
     RDKit          3D

  8  7  0  0  0  0  0  0  0  0999 V2000
   -1.5374   -0.0443   -0.4471 O   0  0  0  0  0  0  0  0  0  0  0  0
   -3.7606   -0.0226    0.0241 O   0  0  0  0  0  0  0  0  0  0  0  0
   -2.5383    0.0430    0.5600 N   0  0  0  0  0  0  0  0  0  0  0  0
    2.2482   -0.0152   -0.3587 C   0  0  0  0  0  0  0  0  0  0  0  0
    0.8127   -0.0636   -0.9066 C   0  0  0  0  0  0  0  0  0  0  0  0
    2.4641    1.2850    0.4194 C   0  0  0  0  0  0  0  0  0  0  0  0
    2.5706   -1.2124    0.5366 C   0  0  0  0  0  0  0  0  0  0  0  0
   -0.2594    0.0301    0.1724 C   0  0  0  0  0  0  0  0  0  0  0  0
  1  3  1  0
  1  8  1  0
  2  3  2  0
  4  5  1  0
  4  6  1  0
  4  7  1  0
  5  8  1  0
M  END
>  <PUBCHEM_COMPOUND_CID>  (1) 
8053

>  <PUBCHEM_CONFORMER_RMSD>  (1) 
0.6

>  <PUBCHEM_CONFORMER_DIVERSEORDER>  (1) 
1
9
7
10
3
5
2
6
8
4
11
12

>  <PUBCHEM_MMFF94_PARTIAL_CHARGES>  (1) 
4
1 -0.09
2 -0.3
3 0.12
8 0.28

>  <PUBCHEM_EFFECTIVE_ROTOR_COUNT>  (1) 
4

>  <PUBCHEM_PHARMACOPHORE_FEATURES>  (1) 
1
3 4 6 7 hydrophobe

>  <PUBCHEM_HEAVY_ATOM_COUNT>  (1) 
8

>  <PUBCHEM_ATOM_DEF_STEREO_COUNT>  (1) 
0

>  <PUBCHEM_ATOM_UDEF_STEREO_COUNT>  (1) 
0

>  <PUBCHEM_BOND_DEF_STEREO_COUNT>  (1) 
0

>  <PUBCHEM_BOND_UDEF_STEREO_COUNT>  (1) 
0

>  <PUBCHEM_ISOTOPIC_ATOM_COUNT>  (1) 
0

>  <PUBCHEM_COMPONENT_COUNT>  (1) 
1

>  <PUBCHEM_CACTVS_TAUTO_COUNT>  (1) 
1

>  <PUBCHEM_CONFORMER_ID>  (1) 
00001F7500000001

>  <PUBCHEM_MMFF94_ENERGY>  (1) 
6.4413

>  <PUBCHEM_FEATURE_SELFOVERLAP>  (1) 
5.074

>  <PUBCHEM_SHAPE_FINGERPRINT>  (1) 
12932764 1 18409728465046883047
14325111 11 18410294726731384047
14390081 3 14117799098363258179
23552333 60 18201722847173253208
23552449 11 18410007702714994706
29004967 10 17676486151084928012
3248919 1 17275107219367458039
5460574 1 15430038768503859951

>  <PUBCHEM_SHAPE_MULTIPOLES>  (1) 
147.92
5.38
1.02
0.83
5.24
0.04
0.07
-0.07
-0.85
-1.07
-0.2
-0.2
-0.02
-0.04

>  <PUBCHEM_SHAPE_SELFOVERLAP>  (1) 
259.177

>  <PUBCHEM_SHAPE_VOLUME>  (1) 
98.3

>  <PUBCHEM_COORDINATE_TYPE>  (1) 
2
5
10

$$$$
