8058
     RDKit          3D

  6  5  0  0  0  0  0  0  0  0999 V2000
    0.6558    0.3935    0.0001 C   0  0  0  0  0  0  0  0  0  0  0  0
   -0.6558   -0.3932    0.0227 C   0  0  0  0  0  0  0  0  0  0  0  0
    1.8649   -0.5413   -0.0114 C   0  0  0  0  0  0  0  0  0  0  0  0
   -1.8650    0.5414    0.0001 C   0  0  0  0  0  0  0  0  0  0  0  0
    3.1709    0.2369   -0.0001 C   0  0  0  0  0  0  0  0  0  0  0  0
   -3.1709   -0.2372   -0.0115 C   0  0  0  0  0  0  0  0  0  0  0  0
  1  2  1  0
  1  3  1  0
  2  4  1  0
  3  5  1  0
  4  6  1  0
M  END
>  <PUBCHEM_COMPOUND_CID>  (1) 
8058

>  <PUBCHEM_CONFORMER_RMSD>  (1) 
0.4

>  <PUBCHEM_CONFORMER_DIVERSEORDER>  (1) 
1
10
12
11
6
5
9
7
8
4
2
3

>  <PUBCHEM_MMFF94_PARTIAL_CHARGES>  (1) 
0

>  <PUBCHEM_EFFECTIVE_ROTOR_COUNT>  (1) 
3

>  <PUBCHEM_PHARMACOPHORE_FEATURES>  (1) 
3
1 5 hydrophobe
1 6 hydrophobe
4 1 2 3 4 hydrophobe

>  <PUBCHEM_HEAVY_ATOM_COUNT>  (1) 
6

>  <PUBCHEM_ATOM_DEF_STEREO_COUNT>  (1) 
0

>  <PUBCHEM_ATOM_UDEF_STEREO_COUNT>  (1) 
0

>  <PUBCHEM_BOND_DEF_STEREO_COUNT>  (1) 
0

>  <PUBCHEM_BOND_UDEF_STEREO_COUNT>  (1) 
0

>  <PUBCHEM_ISOTOPIC_ATOM_COUNT>  (1) 
0

>  <PUBCHEM_COMPONENT_COUNT>  (1) 
1

>  <PUBCHEM_CACTVS_TAUTO_COUNT>  (1) 
1

>  <PUBCHEM_CONFORMER_ID>  (1) 
00001F7A00000001

>  <PUBCHEM_MMFF94_ENERGY>  (1) 
-5.4594

>  <PUBCHEM_FEATURE_SELFOVERLAP>  (1) 
15.224

>  <PUBCHEM_SHAPE_FINGERPRINT>  (1) 
11062470 55 16298385764304614469
12932764 1 15769766923204590733
14325111 11 18410575063219962403
14390081 3 18341891891990397064
16714656 1 18410292506074945605
29004967 10 16588030086792901056
5460574 1 9223230745315639296

>  <PUBCHEM_SHAPE_MULTIPOLES>  (1) 
123.48
5.27
0.78
0.62
0
0
0
0
-0.02
0
0
0
0
0

>  <PUBCHEM_SHAPE_SELFOVERLAP>  (1) 
206.464

>  <PUBCHEM_SHAPE_VOLUME>  (1) 
85.2

>  <PUBCHEM_COORDINATE_TYPE>  (1) 
2
5
10

$$$$
