8069
     RDKit          3D

  6  5  0  0  0  0  0  0  0  0999 V2000
    2.5351   -0.5055    0.2727 O   0  0  0  0  0  0  0  0  0  0  0  0
    1.4700   -0.0278   -0.4947 N   0  0  0  0  0  0  0  0  0  0  0  0
   -1.9246    0.2682    0.2921 C   0  0  0  0  0  0  0  0  0  0  0  0
   -0.7090    1.0209   -0.2396 C   0  0  0  0  0  0  0  0  0  0  0  0
   -1.9388   -1.1935   -0.1325 C   0  0  0  0  0  0  0  0  0  0  0  0
    0.5674    0.4376    0.3020 C   0  0  0  0  0  0  0  0  0  0  0  0
  1  2  1  0
  2  6  2  0
  3  4  1  0
  3  5  1  0
  4  6  1  0
M  END
>  <PUBCHEM_COMPOUND_CID>  (1) 
8069

>  <PUBCHEM_CONFORMER_RMSD>  (1) 
0.4

>  <PUBCHEM_CONFORMER_DIVERSEORDER>  (1) 
1
3
4
2

>  <PUBCHEM_MMFF94_PARTIAL_CHARGES>  (1) 
6
1 -0.34
14 0.06
15 0.4
2 -0.51
4 0.06
6 0.33

>  <PUBCHEM_EFFECTIVE_ROTOR_COUNT>  (1) 
2

>  <PUBCHEM_PHARMACOPHORE_FEATURES>  (1) 
3
1 1 anion
1 2 acceptor
1 5 hydrophobe

>  <PUBCHEM_HEAVY_ATOM_COUNT>  (1) 
6

>  <PUBCHEM_ATOM_DEF_STEREO_COUNT>  (1) 
0

>  <PUBCHEM_ATOM_UDEF_STEREO_COUNT>  (1) 
0

>  <PUBCHEM_BOND_DEF_STEREO_COUNT>  (1) 
0

>  <PUBCHEM_BOND_UDEF_STEREO_COUNT>  (1) 
1

>  <PUBCHEM_ISOTOPIC_ATOM_COUNT>  (1) 
0

>  <PUBCHEM_COMPONENT_COUNT>  (1) 
1

>  <PUBCHEM_CACTVS_TAUTO_COUNT>  (1) 
2

>  <PUBCHEM_CONFORMER_ID>  (1) 
00001F8500000001

>  <PUBCHEM_MMFF94_ENERGY>  (1) 
0.713

>  <PUBCHEM_FEATURE_SELFOVERLAP>  (1) 
15.223

>  <PUBCHEM_SHAPE_FINGERPRINT>  (1) 
139733 1 9295299330412377973
16714656 1 18335143055385814149
20096714 4 9078575693036303989
29004967 10 17275108323036825056
5460574 1 8934998166009338976

>  <PUBCHEM_SHAPE_MULTIPOLES>  (1) 
112.63
3.2
1.11
0.68
1.14
0.08
0
1.06
-0.18
-0.46
0.05
-0.01
-0.02
-0.08

>  <PUBCHEM_SHAPE_SELFOVERLAP>  (1) 
194.709

>  <PUBCHEM_SHAPE_VOLUME>  (1) 
75.5

>  <PUBCHEM_COORDINATE_TYPE>  (1) 
2
5
10

$$$$
