8078
     RDKit          3D

  6  6  0  0  0  0  0  0  0  0999 V2000
   -0.0435   -1.4573   -0.2258 C   0  0  0  0  0  0  0  0  0  0  0  0
    1.2404   -0.7663    0.2258 C   0  0  0  0  0  0  0  0  0  0  0  0
   -1.2838   -0.6910    0.2258 C   0  0  0  0  0  0  0  0  0  0  0  0
    1.2838    0.6911   -0.2257 C   0  0  0  0  0  0  0  0  0  0  0  0
   -1.2404    0.7662   -0.2258 C   0  0  0  0  0  0  0  0  0  0  0  0
    0.0435    1.4573    0.2258 C   0  0  0  0  0  0  0  0  0  0  0  0
  1  2  1  0
  1  3  1  0
  2  4  1  0
  3  5  1  0
  4  6  1  0
  5  6  1  0
M  END
>  <PUBCHEM_COMPOUND_CID>  (1) 
8078

>  <PUBCHEM_CONFORMER_RMSD>  (1) 
0.4

>  <PUBCHEM_CONFORMER_DIVERSEORDER>  (1) 
1

>  <PUBCHEM_MMFF94_PARTIAL_CHARGES>  (1) 
0

>  <PUBCHEM_EFFECTIVE_ROTOR_COUNT>  (1) 
1.2

>  <PUBCHEM_PHARMACOPHORE_FEATURES>  (1) 
1
6 1 2 3 4 5 6 rings

>  <PUBCHEM_HEAVY_ATOM_COUNT>  (1) 
6

>  <PUBCHEM_ATOM_DEF_STEREO_COUNT>  (1) 
0

>  <PUBCHEM_ATOM_UDEF_STEREO_COUNT>  (1) 
0

>  <PUBCHEM_BOND_DEF_STEREO_COUNT>  (1) 
0

>  <PUBCHEM_BOND_UDEF_STEREO_COUNT>  (1) 
0

>  <PUBCHEM_ISOTOPIC_ATOM_COUNT>  (1) 
0

>  <PUBCHEM_COMPONENT_COUNT>  (1) 
1

>  <PUBCHEM_CACTVS_TAUTO_COUNT>  (1) 
1

>  <PUBCHEM_CONFORMER_ID>  (1) 
00001F8E00000001

>  <PUBCHEM_MMFF94_ENERGY>  (1) 
-3.5609

>  <PUBCHEM_FEATURE_SELFOVERLAP>  (1) 
5.074

>  <PUBCHEM_SHAPE_FINGERPRINT>  (1) 
16714656 1 18049457116586536972
20096714 4 17907303508551530834
21040471 1 18338796835377353517
29004967 10 17753336657820641491

>  <PUBCHEM_SHAPE_MULTIPOLES>  (1) 
123.48
1.68
1.68
0.67
0
0
0
0
0
0
0
0
0
0

>  <PUBCHEM_SHAPE_SELFOVERLAP>  (1) 
230.793

>  <PUBCHEM_SHAPE_VOLUME>  (1) 
75.9

>  <PUBCHEM_COORDINATE_TYPE>  (1) 
2
5
10

$$$$
