8080
     RDKit          3D

  6  6  0  0  0  0  0  0  0  0999 V2000
    1.4261    0.0951    0.1040 O   0  0  0  0  0  0  0  0  0  0  0  0
   -0.7780    1.1770    0.2958 C   0  0  0  0  0  0  0  0  0  0  0  0
   -1.4883   -0.1083   -0.1222 C   0  0  0  0  0  0  0  0  0  0  0  0
    0.6267    1.2166   -0.2960 C   0  0  0  0  0  0  0  0  0  0  0  0
   -0.5542   -1.2738   -0.0540 C   0  0  0  0  0  0  0  0  0  0  0  0
    0.7677   -1.1066    0.0723 C   0  0  0  0  0  0  0  0  0  0  0  0
  1  4  1  0
  1  6  1  0
  2  3  1  0
  2  4  1  0
  3  5  1  0
  5  6  2  0
M  END
>  <PUBCHEM_COMPOUND_CID>  (1) 
8080

>  <PUBCHEM_CONFORMER_RMSD>  (1) 
0.4

>  <PUBCHEM_CONFORMER_DIVERSEORDER>  (1) 
1

>  <PUBCHEM_MMFF94_PARTIAL_CHARGES>  (1) 
7
1 -0.36
13 0.15
14 0.15
3 0.14
4 0.28
5 -0.29
6 -0.07

>  <PUBCHEM_EFFECTIVE_ROTOR_COUNT>  (1) 
0.8

>  <PUBCHEM_PHARMACOPHORE_FEATURES>  (1) 
2
1 1 acceptor
6 1 2 3 4 5 6 rings

>  <PUBCHEM_HEAVY_ATOM_COUNT>  (1) 
6

>  <PUBCHEM_ATOM_DEF_STEREO_COUNT>  (1) 
0

>  <PUBCHEM_ATOM_UDEF_STEREO_COUNT>  (1) 
0

>  <PUBCHEM_BOND_DEF_STEREO_COUNT>  (1) 
0

>  <PUBCHEM_BOND_UDEF_STEREO_COUNT>  (1) 
0

>  <PUBCHEM_ISOTOPIC_ATOM_COUNT>  (1) 
0

>  <PUBCHEM_COMPONENT_COUNT>  (1) 
1

>  <PUBCHEM_CACTVS_TAUTO_COUNT>  (1) 
1

>  <PUBCHEM_CONFORMER_ID>  (1) 
00001F9000000001

>  <PUBCHEM_MMFF94_ENERGY>  (1) 
4.0491

>  <PUBCHEM_FEATURE_SELFOVERLAP>  (1) 
10.148

>  <PUBCHEM_SHAPE_FINGERPRINT>  (1) 
16714656 1 17331412964849493214
20096714 4 18265616657120857799
21015797 1 9223232944381131847
21040471 1 17977947109324826133

>  <PUBCHEM_SHAPE_MULTIPOLES>  (1) 
117.61
1.61
1.57
0.64
0
0.05
0.01
-0.02
-0.04
-0.03
0.04
-0.04
0.02
0.1

>  <PUBCHEM_SHAPE_SELFOVERLAP>  (1) 
227.319

>  <PUBCHEM_SHAPE_VOLUME>  (1) 
70.2

>  <PUBCHEM_COORDINATE_TYPE>  (1) 
2
5
10

$$$$
