8102
     RDKit          3D

  7  6  0  0  0  0  0  0  0  0999 V2000
    3.7387   -0.3623   -0.0108 N   0  0  0  0  0  0  0  0  0  0  0  0
    0.0008    0.4681    0.0158 C   0  0  0  0  0  0  0  0  0  0  0  0
   -1.2706   -0.3837    0.0171 C   0  0  0  0  0  0  0  0  0  0  0  0
    1.2890   -0.3605   -0.0129 C   0  0  0  0  0  0  0  0  0  0  0  0
   -2.5235    0.4923   -0.0273 C   0  0  0  0  0  0  0  0  0  0  0  0
    2.5567    0.4928    0.0123 C   0  0  0  0  0  0  0  0  0  0  0  0
   -3.7912   -0.3466    0.0057 C   0  0  0  0  0  0  0  0  0  0  0  0
  1  6  1  0
  2  3  1  0
  2  4  1  0
  3  5  1  0
  4  6  1  0
  5  7  1  0
M  END
>  <PUBCHEM_COMPOUND_CID>  (1) 
8102

>  <PUBCHEM_CONFORMER_RMSD>  (1) 
0.6

>  <PUBCHEM_CONFORMER_DIVERSEORDER>  (1) 
1
17
15
29
11
14
16
9
25
26
6
5
22
24
20
28
13
19
4
23
18
27
7
12
2
8
21
3
10

>  <PUBCHEM_MMFF94_PARTIAL_CHARGES>  (1) 
4
1 -0.99
21 0.36
22 0.36
6 0.27

>  <PUBCHEM_EFFECTIVE_ROTOR_COUNT>  (1) 
4

>  <PUBCHEM_PHARMACOPHORE_FEATURES>  (1) 
4
1 1 cation
1 1 donor
1 7 hydrophobe
4 2 3 4 5 hydrophobe

>  <PUBCHEM_HEAVY_ATOM_COUNT>  (1) 
7

>  <PUBCHEM_ATOM_DEF_STEREO_COUNT>  (1) 
0

>  <PUBCHEM_ATOM_UDEF_STEREO_COUNT>  (1) 
0

>  <PUBCHEM_BOND_DEF_STEREO_COUNT>  (1) 
0

>  <PUBCHEM_BOND_UDEF_STEREO_COUNT>  (1) 
0

>  <PUBCHEM_ISOTOPIC_ATOM_COUNT>  (1) 
0

>  <PUBCHEM_COMPONENT_COUNT>  (1) 
1

>  <PUBCHEM_CACTVS_TAUTO_COUNT>  (1) 
1

>  <PUBCHEM_CONFORMER_ID>  (1) 
00001FA600000001

>  <PUBCHEM_MMFF94_ENERGY>  (1) 
-6.1861

>  <PUBCHEM_FEATURE_SELFOVERLAP>  (1) 
20.297

>  <PUBCHEM_SHAPE_FINGERPRINT>  (1) 
11062470 55 18411419513977952897
14325111 11 18410573980877589347
14390081 3 18413105065345707041
20719005 15 18411138043454465091
5460574 1 9295289443408127617

>  <PUBCHEM_SHAPE_MULTIPOLES>  (1) 
139.08
6.68
0.78
0.61
0.2
0.03
0
-0.61
-0.02
-0.03
0
-0.05
0
0.01

>  <PUBCHEM_SHAPE_SELFOVERLAP>  (1) 
236.351

>  <PUBCHEM_SHAPE_VOLUME>  (1) 
93.1

>  <PUBCHEM_COORDINATE_TYPE>  (1) 
2
5
10

$$$$
