8109
     RDKit          3D

  7  6  0  0  0  0  0  0  0  0999 V2000
   -1.2118    0.2930   -0.0036 O   0  0  0  0  0  0  0  0  0  0  0  0
    3.5876    0.4074    0.0096 O   0  0  0  0  0  0  0  0  0  0  0  0
    1.1957    0.3519   -0.0138 C   0  0  0  0  0  0  0  0  0  0  0  0
   -0.0480   -0.5230   -0.0057 C   0  0  0  0  0  0  0  0  0  0  0  0
    2.4721   -0.4727    0.0035 C   0  0  0  0  0  0  0  0  0  0  0  0
   -2.3979   -0.4898    0.0040 C   0  0  0  0  0  0  0  0  0  0  0  0
   -3.5978    0.4332    0.0060 C   0  0  0  0  0  0  0  0  0  0  0  0
  1  4  1  0
  1  6  1  0
  2  5  1  0
  3  4  1  0
  3  5  1  0
  6  7  1  0
M  END
>  <PUBCHEM_COMPOUND_CID>  (1) 
8109

>  <PUBCHEM_CONFORMER_RMSD>  (1) 
0.6

>  <PUBCHEM_CONFORMER_DIVERSEORDER>  (1) 
1
19
7
32
29
23
4
5
11
20
26
33
24
28
14
21
30
12
10
6
8
15
13
27
9
16
18
31
2
22
25
17
3

>  <PUBCHEM_MMFF94_PARTIAL_CHARGES>  (1) 
6
1 -0.56
19 0.4
2 -0.68
4 0.28
5 0.28
6 0.28

>  <PUBCHEM_EFFECTIVE_ROTOR_COUNT>  (1) 
4

>  <PUBCHEM_PHARMACOPHORE_FEATURES>  (1) 
3
1 1 acceptor
1 2 acceptor
1 2 donor

>  <PUBCHEM_HEAVY_ATOM_COUNT>  (1) 
7

>  <PUBCHEM_ATOM_DEF_STEREO_COUNT>  (1) 
0

>  <PUBCHEM_ATOM_UDEF_STEREO_COUNT>  (1) 
0

>  <PUBCHEM_BOND_DEF_STEREO_COUNT>  (1) 
0

>  <PUBCHEM_BOND_UDEF_STEREO_COUNT>  (1) 
0

>  <PUBCHEM_ISOTOPIC_ATOM_COUNT>  (1) 
0

>  <PUBCHEM_COMPONENT_COUNT>  (1) 
1

>  <PUBCHEM_CACTVS_TAUTO_COUNT>  (1) 
1

>  <PUBCHEM_CONFORMER_ID>  (1) 
00001FAD00000001

>  <PUBCHEM_MMFF94_ENERGY>  (1) 
4.4199

>  <PUBCHEM_FEATURE_SELFOVERLAP>  (1) 
15.223

>  <PUBCHEM_SHAPE_FINGERPRINT>  (1) 
11062470 55 18411138034621807457
12932764 1 15647043906520940259
14325111 11 18410856559671639463
14390081 3 18342173358519480993
5460574 1 9295290538508769542

>  <PUBCHEM_SHAPE_MULTIPOLES>  (1) 
132.32
6.25
0.78
0.59
0.18
0.04
0
-0.85
0.03
0.03
0
0.04
0.01
0

>  <PUBCHEM_SHAPE_SELFOVERLAP>  (1) 
227.352

>  <PUBCHEM_SHAPE_VOLUME>  (1) 
89.1

>  <PUBCHEM_COORDINATE_TYPE>  (1) 
2
5
10

$$$$
