8125
     RDKit          3D

  8  7  0  0  0  0  0  0  0  0999 V2000
    0.6122    0.5209   -0.0391 C   0  0  0  0  0  0  0  0  0  0  0  0
    1.8590   -0.3353    0.1932 C   0  0  0  0  0  0  0  0  0  0  0  0
   -0.6926   -0.1881    0.3366 C   0  0  0  0  0  0  0  0  0  0  0  0
    3.1230    0.3933   -0.2650 C   0  0  0  0  0  0  0  0  0  0  0  0
   -1.9431    0.6417    0.0352 C   0  0  0  0  0  0  0  0  0  0  0  0
    4.3628   -0.4656   -0.0726 C   0  0  0  0  0  0  0  0  0  0  0  0
   -3.1927   -0.1250    0.3567 C   0  0  0  0  0  0  0  0  0  0  0  0
   -4.1286   -0.4420   -0.5449 C   0  0  0  0  0  0  0  0  0  0  0  0
  1  2  1  0
  1  3  1  0
  2  4  1  0
  3  5  1  0
  4  6  1  0
  5  7  1  0
  7  8  2  0
M  END
>  <PUBCHEM_COMPOUND_CID>  (1) 
8125

>  <PUBCHEM_CONFORMER_RMSD>  (1) 
0.6

>  <PUBCHEM_CONFORMER_DIVERSEORDER>  (1) 
1
41
33
8
39
25
42
17
14
13
2
35
10
36
38
6
15
11
40
30
32
29
12
9
34
7
22
31
26
4
27
3
21
16
37
19
5
20
23
24
28
18

>  <PUBCHEM_MMFF94_PARTIAL_CHARGES>  (1) 
6
22 0.15
23 0.15
24 0.15
5 0.14
7 -0.29
8 -0.3

>  <PUBCHEM_EFFECTIVE_ROTOR_COUNT>  (1) 
5

>  <PUBCHEM_PHARMACOPHORE_FEATURES>  (1) 
4
1 6 hydrophobe
1 8 hydrophobe
3 1 2 4 hydrophobe
3 3 5 7 hydrophobe

>  <PUBCHEM_HEAVY_ATOM_COUNT>  (1) 
8

>  <PUBCHEM_ATOM_DEF_STEREO_COUNT>  (1) 
0

>  <PUBCHEM_ATOM_UDEF_STEREO_COUNT>  (1) 
0

>  <PUBCHEM_BOND_DEF_STEREO_COUNT>  (1) 
0

>  <PUBCHEM_BOND_UDEF_STEREO_COUNT>  (1) 
0

>  <PUBCHEM_ISOTOPIC_ATOM_COUNT>  (1) 
0

>  <PUBCHEM_COMPONENT_COUNT>  (1) 
1

>  <PUBCHEM_CACTVS_TAUTO_COUNT>  (1) 
1

>  <PUBCHEM_CONFORMER_ID>  (1) 
00001FBD00000001

>  <PUBCHEM_MMFF94_ENERGY>  (1) 
-2.4004

>  <PUBCHEM_FEATURE_SELFOVERLAP>  (1) 
20.346

>  <PUBCHEM_SHAPE_FINGERPRINT>  (1) 
11062470 55 12324241667627927564
12932764 1 14548728452790648520
14123238 8 16773794814104865264
14325111 11 18409731737775058536
17834076 25 15429753973522730223
18342897 14 9367345937834473926
190213 19 17822013116174766960
20211469 26 18408041805620030693
20645477 70 15430303694881980626
20719005 15 18411419509893962698
21119208 17 17458062668310403591
21293036 1 17967532384714905485
22485316 2 17703788106733496575
23402539 116 18341607096861483461

>  <PUBCHEM_SHAPE_MULTIPOLES>  (1) 
164.64
8.63
0.79
0.7
1.2
0.03
-0.01
-1.56
-1.08
0.02
-0.02
-0.18
-0.02
-0.15

>  <PUBCHEM_SHAPE_SELFOVERLAP>  (1) 
286.287

>  <PUBCHEM_SHAPE_VOLUME>  (1) 
109.4

>  <PUBCHEM_COORDINATE_TYPE>  (1) 
2
5
10

$$$$
