8133
     RDKit          3D

  8  7  0  0  0  0  0  0  0  0999 V2000
   -0.6145   -0.3419   -0.0022 O   0  0  0  0  0  0  0  0  0  0  0  0
   -4.2088    0.1882    0.0173 O   0  0  0  0  0  0  0  0  0  0  0  0
    1.7799   -0.3490   -0.0174 C   0  0  0  0  0  0  0  0  0  0  0  0
    3.0451    0.5042   -0.0092 C   0  0  0  0  0  0  0  0  0  0  0  0
    0.5231    0.5095   -0.0092 C   0  0  0  0  0  0  0  0  0  0  0  0
    4.2976   -0.3569    0.0261 C   0  0  0  0  0  0  0  0  0  0  0  0
   -1.8246    0.4034    0.0058 C   0  0  0  0  0  0  0  0  0  0  0  0
   -2.9978   -0.5574   -0.0112 C   0  0  0  0  0  0  0  0  0  0  0  0
  1  5  1  0
  1  7  1  0
  2  8  1  0
  3  4  1  0
  3  5  1  0
  4  6  1  0
  7  8  1  0
M  END
>  <PUBCHEM_COMPOUND_CID>  (1) 
8133

>  <PUBCHEM_CONFORMER_RMSD>  (1) 
0.6

>  <PUBCHEM_CONFORMER_DIVERSEORDER>  (1) 
2
20
72
17
69
36
67
66
13
6
26
70
7
58
50
59
51
10
19
16
27
47
15
64
38
18
57
52
14
62
56
71
12
63
5
65
9
34
30
68
11
21
1
46
61
45
53
39
60
24
37
41
29
8
23
43
55
44
49
40
31
42
54
3
33
22
48
4
35
32
25
28

>  <PUBCHEM_MMFF94_PARTIAL_CHARGES>  (1) 
6
1 -0.56
2 -0.68
22 0.4
5 0.28
7 0.28
8 0.28

>  <PUBCHEM_EFFECTIVE_ROTOR_COUNT>  (1) 
5

>  <PUBCHEM_PHARMACOPHORE_FEATURES>  (1) 
4
1 1 acceptor
1 2 acceptor
1 2 donor
1 6 hydrophobe

>  <PUBCHEM_HEAVY_ATOM_COUNT>  (1) 
8

>  <PUBCHEM_ATOM_DEF_STEREO_COUNT>  (1) 
0

>  <PUBCHEM_ATOM_UDEF_STEREO_COUNT>  (1) 
0

>  <PUBCHEM_BOND_DEF_STEREO_COUNT>  (1) 
0

>  <PUBCHEM_BOND_UDEF_STEREO_COUNT>  (1) 
0

>  <PUBCHEM_ISOTOPIC_ATOM_COUNT>  (1) 
0

>  <PUBCHEM_COMPONENT_COUNT>  (1) 
1

>  <PUBCHEM_CACTVS_TAUTO_COUNT>  (1) 
1

>  <PUBCHEM_CONFORMER_ID>  (1) 
00001FC500000002

>  <PUBCHEM_MMFF94_ENERGY>  (1) 
4.5519

>  <PUBCHEM_FEATURE_SELFOVERLAP>  (1) 
20.297

>  <PUBCHEM_SHAPE_FINGERPRINT>  (1) 
11062470 55 18410575093258307745
14325111 11 18410855473023639182
190213 19 15626227926534901532
20719005 15 18410856568403894915
21293036 1 11963390743316512838
22485316 2 18342734126518830518
5460574 1 9223234043855836364

>  <PUBCHEM_SHAPE_MULTIPOLES>  (1) 
152.9
8.15
0.77
0.59
0.4
0.01
0
-0.62
-0.07
-0.07
0
-0.06
0
-0.01

>  <PUBCHEM_SHAPE_SELFOVERLAP>  (1) 
265.273

>  <PUBCHEM_SHAPE_VOLUME>  (1) 
102.1

>  <PUBCHEM_COORDINATE_TYPE>  (1) 
2
5
10

$$$$
