8144
     RDKit          3D

  9  8  0  0  0  0  0  0  0  0999 V2000
   -5.2637   -0.4921    0.0369 S   0  0  0  0  0  0  0  0  0  0  0  0
    0.0086   -0.3438   -0.0726 C   0  0  0  0  0  0  0  0  0  0  0  0
    1.3083    0.4660   -0.0586 C   0  0  0  0  0  0  0  0  0  0  0  0
   -1.2499    0.5244   -0.0041 C   0  0  0  0  0  0  0  0  0  0  0  0
    2.5673   -0.4036   -0.0526 C   0  0  0  0  0  0  0  0  0  0  0  0
   -2.5176   -0.3358    0.0020 C   0  0  0  0  0  0  0  0  0  0  0  0
    3.8310    0.4534    0.0347 C   0  0  0  0  0  0  0  0  0  0  0  0
   -3.7686    0.5372    0.0347 C   0  0  0  0  0  0  0  0  0  0  0  0
    5.0846   -0.4058    0.0795 C   0  0  0  0  0  0  0  0  0  0  0  0
  1  8  1  0
  2  3  1  0
  2  4  1  0
  3  5  1  0
  4  6  1  0
  5  7  1  0
  6  8  1  0
  7  9  1  0
M  END
>  <PUBCHEM_COMPOUND_CID>  (1) 
8144

>  <PUBCHEM_CONFORMER_RMSD>  (1) 
0.6

>  <PUBCHEM_CONFORMER_DIVERSEORDER>  (1) 
1
45
44
84
167
145
26
48
149
18
62
5
10
153
101
170
123
13
8
125
35
77
42
162
29
160
6
61
87
94
105
74
136
11
38
3
172
113
7
144
155
96
34
75
129
19
32
110
16
107
166
119
131
148
130
14
73
28
72
54
36
140
111
171
30
134
33
37
91
95
85
43
22
114
93
109
60
106
90
141
53
92
71
17
142
67
82
116
68
15
124
89
128
146
69
46
83
59
2
97
78
104
79
98
56
122
50
63
151
52
88
168
41
27
165
169
39
115
135
20
161
49
156
57
157
164
24
147
4
127
132
150
40
143
152
51
9
137
31
99
81
86
103
66
154
12
76
138
47
23
133
55
126
25
80
102
112
64
139
100
159
163
120
118
21
117
121
70
158
108
58
65

>  <PUBCHEM_MMFF94_PARTIAL_CHARGES>  (1) 
3
1 -0.41
27 0.18
8 0.23

>  <PUBCHEM_EFFECTIVE_ROTOR_COUNT>  (1) 
6

>  <PUBCHEM_PHARMACOPHORE_FEATURES>  (1) 
3
1 9 hydrophobe
3 2 4 6 hydrophobe
3 3 5 7 hydrophobe

>  <PUBCHEM_HEAVY_ATOM_COUNT>  (1) 
9

>  <PUBCHEM_ATOM_DEF_STEREO_COUNT>  (1) 
0

>  <PUBCHEM_ATOM_UDEF_STEREO_COUNT>  (1) 
0

>  <PUBCHEM_BOND_DEF_STEREO_COUNT>  (1) 
0

>  <PUBCHEM_BOND_UDEF_STEREO_COUNT>  (1) 
0

>  <PUBCHEM_ISOTOPIC_ATOM_COUNT>  (1) 
0

>  <PUBCHEM_COMPONENT_COUNT>  (1) 
1

>  <PUBCHEM_CACTVS_TAUTO_COUNT>  (1) 
1

>  <PUBCHEM_CONFORMER_ID>  (1) 
00001FD000000001

>  <PUBCHEM_MMFF94_ENERGY>  (1) 
-1.8305

>  <PUBCHEM_FEATURE_SELFOVERLAP>  (1) 
15.236

>  <PUBCHEM_SHAPE_FINGERPRINT>  (1) 
11062470 55 18410856559645090308
14123238 8 18334013899740695927
15501527 16 9871484114573401803
17834072 33 18337954592274731925
17834076 25 18410856563971706134
18342897 14 9583519815228098295
187816 3 15574714694815156509
20645477 70 18341614750862957358
20719005 15 18410575088958046210
20767249 13 18187363233514042747
22485316 2 18333729117618276251
23402539 116 18412820288103382045
366044 4 18409448093871986186
42788 4 18410855460144057505

>  <PUBCHEM_SHAPE_MULTIPOLES>  (1) 
189.07
11.92
0.83
0.63
0.65
0.01
0
-1.57
-0.41
0.11
0
0.05
0
-0.01

>  <PUBCHEM_SHAPE_SELFOVERLAP>  (1) 
319.449

>  <PUBCHEM_SHAPE_VOLUME>  (1) 
127.9

>  <PUBCHEM_COORDINATE_TYPE>  (1) 
2
5
10

$$$$
