8176
     RDKit          3D

 11 10  0  0  0  0  0  0  0  0999 V2000
   -3.7688    0.7514   -0.0302 O   0  0  0  0  0  0  0  0  0  0  0  0
   -5.3031   -0.9823   -0.0190 O   0  0  0  0  0  0  0  0  0  0  0  0
    1.1392    0.4487    0.0723 C   0  0  0  0  0  0  0  0  0  0  0  0
    2.3845   -0.4427    0.0700 C   0  0  0  0  0  0  0  0  0  0  0  0
   -0.1726   -0.3380    0.0264 C   0  0  0  0  0  0  0  0  0  0  0  0
    3.6965    0.3441    0.0414 C   0  0  0  0  0  0  0  0  0  0  0  0
   -1.3792    0.5992    0.0071 C   0  0  0  0  0  0  0  0  0  0  0  0
    4.9025   -0.5937   -0.0330 C   0  0  0  0  0  0  0  0  0  0  0  0
   -2.6907   -0.1735    0.0030 C   0  0  0  0  0  0  0  0  0  0  0  0
    6.2082    0.1823   -0.1002 C   0  0  0  0  0  0  0  0  0  0  0  0
   -5.0165    0.2044   -0.0378 C   0  0  0  0  0  0  0  0  0  0  0  0
  1  9  1  0
  1 11  1  0
  2 11  2  0
  3  4  1  0
  3  5  1  0
  4  6  1  0
  5  7  1  0
  6  8  1  0
  7  9  1  0
  8 10  1  0
M  END
>  <PUBCHEM_COMPOUND_CID>  (1) 
8176

>  <PUBCHEM_CONFORMER_RMSD>  (1) 
0.8

>  <PUBCHEM_CONFORMER_DIVERSEORDER>  (1) 
1
152
88
144
2
102
74
147
3
129
115
18
26
6
45
108
9
161
103
12
127
116
80
77
132
13
27
24
15
156
157
113
123
70
20
149
164
73
34
133
75
163
11
117
101
85
63
135
19
72
4
138
48
46
40
28
44
62
151
99
110
7
104
60
140
10
31
97
107
84
93
49
154
8
90
14
136
5
87
131
111
82
159
17
42
160
69
51
55
64
109
16
47
112
125
118
106
150
23
105
21
96
158
78
146
39
25
68
148
134
86
36
65
114
83
35
142
153
95
143
41
126
94
30
33
53
137
57
91
59
37
32
67
22
122
71
76
61
128
155
81
162
141
66
130
124
100
58
121
119
29
120
92
50
145
38
43
89
56
79
139
98
54
52

>  <PUBCHEM_MMFF94_PARTIAL_CHARGES>  (1) 
5
1 -0.43
11 0.66
2 -0.57
29 0.06
9 0.28

>  <PUBCHEM_EFFECTIVE_ROTOR_COUNT>  (1) 
8

>  <PUBCHEM_PHARMACOPHORE_FEATURES>  (1) 
4
1 10 hydrophobe
1 2 acceptor
3 3 5 7 hydrophobe
3 4 6 8 hydrophobe

>  <PUBCHEM_HEAVY_ATOM_COUNT>  (1) 
11

>  <PUBCHEM_ATOM_DEF_STEREO_COUNT>  (1) 
0

>  <PUBCHEM_ATOM_UDEF_STEREO_COUNT>  (1) 
0

>  <PUBCHEM_BOND_DEF_STEREO_COUNT>  (1) 
0

>  <PUBCHEM_BOND_UDEF_STEREO_COUNT>  (1) 
0

>  <PUBCHEM_ISOTOPIC_ATOM_COUNT>  (1) 
0

>  <PUBCHEM_COMPONENT_COUNT>  (1) 
1

>  <PUBCHEM_CACTVS_TAUTO_COUNT>  (1) 
1

>  <PUBCHEM_CONFORMER_ID>  (1) 
00001FF000000001

>  <PUBCHEM_MMFF94_ENERGY>  (1) 
1.6652

>  <PUBCHEM_FEATURE_SELFOVERLAP>  (1) 
20.31

>  <PUBCHEM_SHAPE_FINGERPRINT>  (1) 
11287383 113 18341613745750263480
11401426 45 10953459630669469425
114248 4 18410575080610750274
12091667 2 17675926486802619537
13533116 47 16660915600919165440
14123238 8 17822009804739124982
1420 363 18060142045894049406
14251718 22 18335139799631772754
17834072 33 18411419548517046020
17834076 25 17458345238930945146
20645477 70 18270121198101025030
20719005 15 18410855460133436544
20767249 13 17967251996528425048
20767249 213 16008753524160737676
22896161 15 18338236071583378382
23402539 116 18186515497438471485
366044 4 18260548922356329170
42788 4 18410575080811288236
57483677 66 18412260627499212982
8209 1 18408885135322887765

>  <PUBCHEM_SHAPE_MULTIPOLES>  (1) 
214.64
14.71
0.84
0.6
2.15
0.04
0
1.15
0.51
-0.27
0
0.09
0
0

>  <PUBCHEM_SHAPE_SELFOVERLAP>  (1) 
383.598

>  <PUBCHEM_SHAPE_VOLUME>  (1) 
138.7

>  <PUBCHEM_COORDINATE_TYPE>  (1) 
2
5
10

$$$$
