818
     RDKit          3D

 20 19  0  0  1  0  0  0  0  0999 V2000
   -5.7572    0.0242    0.0662 P   0  0  0  0  0  0  0  0  0  0  0  0
    0.7100   -1.4200    0.9829 O   0  0  0  0  0  0  0  0  0  0  0  0
   -0.6192    1.0900    1.1223 O   0  0  0  0  0  0  0  0  0  0  0  0
    2.0549    1.1621   -1.1848 O   0  0  0  0  0  0  0  0  0  0  0  0
   -1.9085   -1.2096   -1.3774 O   0  0  0  0  0  0  0  0  0  0  0  0
   -4.2749   -0.6074   -0.0499 O   0  0  0  0  0  0  0  0  0  0  0  0
    4.5747    1.5799   -0.0008 O   0  0  0  0  0  0  0  0  0  0  0  0
   -5.6829    0.8502    1.4545 O   0  0  0  0  0  0  0  0  0  0  0  0
   -5.7706    1.1867   -1.0579 O   0  0  0  0  0  0  0  0  0  0  0  0
   -6.8806   -0.9668   -0.0222 O   0  0  0  0  0  0  0  0  0  0  0  0
    6.8617    0.5112    0.0465 O   0  0  0  0  0  0  0  0  0  0  0  0
    5.9175   -1.5772    0.1492 O   0  0  0  0  0  0  0  0  0  0  0  0
    0.7205   -0.4995   -0.1158 C   0  0  0  0  0  0  0  0  0  0  0  0
   -0.5919    0.3039   -0.0756 C   0  0  0  0  0  0  0  0  0  0  0  0
    2.0064    0.3440   -0.0072 C   0  0  0  0  0  0  0  0  0  0  0  0
   -1.8770   -0.5429   -0.1074 C   0  0  0  0  0  0  0  0  0  0  0  0
    3.2867   -0.4949    0.0501 C   0  0  0  0  0  0  0  0  0  0  0  0
   -3.1584    0.2746    0.0256 C   0  0  0  0  0  0  0  0  0  0  0  0
    4.5369    0.3591    0.0356 C   0  0  0  0  0  0  0  0  0  0  0  0
    5.8517   -0.3676    0.0661 C   0  0  0  0  0  0  0  0  0  0  0  0
  1  6  1  0
  1  8  1  0
  1  9  1  0
  1 10  2  0
  2 13  1  0
  3 14  1  0
  4 15  1  0
  5 16  1  0
  6 18  1  0
  7 19  2  0
 11 20  1  0
 12 20  2  0
 13 14  1  0
 13 15  1  0
 14 16  1  0
 15 17  1  0
 16 18  1  0
 17 19  1  0
 19 20  1  0
M  END
>  <PUBCHEM_COMPOUND_CID>  (1) 
818

>  <PUBCHEM_CONFORMER_RMSD>  (1) 
1.2

>  <PUBCHEM_CONFORMER_DIVERSEORDER>  (1) 
3
233
201
167
16
55
48
203
102
186
112
150
227
164
75
5
2
126
17
11
18
226
21
184
239
159
149
36
108
123
142
175
163
99
88
190
13
37
211
162
25
39
237
14
117
208
87
230
219
147
234
180
136
24
224
64
140
166
165
26
235
242
121
177
141
9
50
199
223
157
92
217
109
59
54
38
236
74
98
249
118
174
198
173
220
172
158
110
105
125
63
33
58
83
107
113
176
94
148
12
222
122
120
53
179
28
67
160
183
193
52
34
73
8
130
210
205
1
241
244
31
161
213
114
216
27
66
70
171
202
101
19
80
131
68
119
168
240
200
215
23
170
204
116
85
187
104
195
212
134
22
154
45
145
124
96
245
57
44
106
247
35
51
218
10
196
97
100
146
225
93
138
153
78
197
169
81
151
152
188
6
191
20
194
155
4
72
77
43
185
7
69
206
103
137
128
40
221
89
143
246
135
156
42
133
84
181
182
232
60
61
228
229
29
238
82
243
41
62
248
144
115
15
132
46
65
91
189
192
32
56
214
30
139
76
47
111
127
129
86
79
71
207
178
231
209
49
95
90

>  <PUBCHEM_MMFF94_PARTIAL_CHARGES>  (1) 
27
1 1.51
10 -0.7
11 -0.65
12 -0.57
13 0.28
14 0.28
15 0.28
16 0.28
17 0.06
18 0.28
19 0.51
2 -0.68
20 0.72
29 0.4
3 -0.68
30 0.4
31 0.4
32 0.4
33 0.5
34 0.5
35 0.5
4 -0.68
5 -0.68
6 -0.55
7 -0.57
8 -0.77
9 -0.77

>  <PUBCHEM_EFFECTIVE_ROTOR_COUNT>  (1) 
9

>  <PUBCHEM_PHARMACOPHORE_FEATURES>  (1) 
16
1 10 acceptor
1 11 acceptor
1 12 acceptor
1 2 acceptor
1 2 donor
1 3 acceptor
1 3 donor
1 4 acceptor
1 4 donor
1 5 acceptor
1 5 donor
1 7 acceptor
1 8 acceptor
1 9 acceptor
3 11 12 20 anion
4 1 8 9 10 anion

>  <PUBCHEM_HEAVY_ATOM_COUNT>  (1) 
20

>  <PUBCHEM_ATOM_DEF_STEREO_COUNT>  (1) 
0

>  <PUBCHEM_ATOM_UDEF_STEREO_COUNT>  (1) 
4

>  <PUBCHEM_BOND_DEF_STEREO_COUNT>  (1) 
0

>  <PUBCHEM_BOND_UDEF_STEREO_COUNT>  (1) 
0

>  <PUBCHEM_ISOTOPIC_ATOM_COUNT>  (1) 
0

>  <PUBCHEM_COMPONENT_COUNT>  (1) 
1

>  <PUBCHEM_CACTVS_TAUTO_COUNT>  (1) 
2

>  <PUBCHEM_CONFORMER_ID>  (1) 
0000033200000003

>  <PUBCHEM_MMFF94_ENERGY>  (1) 
7.6203

>  <PUBCHEM_FEATURE_SELFOVERLAP>  (1) 
81.324

>  <PUBCHEM_SHAPE_FINGERPRINT>  (1) 
11089746 13 17203603791879684865
11315181 36 18272371988760295889
12091667 2 17749108890194799625
12166972 35 18335704952877803236
12236239 1 18413108363759004619
13167372 99 18272092660481711000
13533116 47 18341892953570226706
1420 363 16950567674720705210
14251752 14 18341889667307997045
14251764 18 18273215313218743030
14251764 46 18410572894240320459
15048467 5 17418095416335203337
17834076 25 18410855468718102891
200 152 18272367577459604506
20281389 69 18412543219299250537
21150785 3 17846771923936971445
21267235 1 18411423886813823006
22224240 67 16950280736529925938
23035841 295 18202563982132296235
23402539 116 17203323412267425133
23536379 177 18413671305117288195
23557571 272 16200164166361825920
23559900 14 17417801894260064250
3545911 37 18334012795791877398
42788 4 18408885144176527429
4463277 17 18333448738005873724
59755656 215 17385723565179003354
59755656 520 18040430018838647083
8209 1 18410573993751941750

>  <PUBCHEM_SHAPE_MULTIPOLES>  (1) 
350.88
17.99
1.26
0.94
3.18
0.03
0
-0.23
0.69
-0.43
-0.02
0.81
-0.1
-0.4

>  <PUBCHEM_SHAPE_SELFOVERLAP>  (1) 
675.035

>  <PUBCHEM_SHAPE_VOLUME>  (1) 
213.1

>  <PUBCHEM_COORDINATE_TYPE>  (1) 
2
5
10

$$$$
