8203
     RDKit          3D

 21 20  0  0  0  0  0  0  0  0999 V2000
    4.3072   -1.0352   -1.4329 O   0  0  0  0  0  0  0  0  0  0  0  0
    3.2400   -0.5607    0.5561 O   0  0  0  0  0  0  0  0  0  0  0  0
   -0.4043   -3.0550    0.7176 C   0  0  0  0  0  0  0  0  0  0  0  0
   -1.6837   -2.4636    0.1220 C   0  0  0  0  0  0  0  0  0  0  0  0
    0.8242   -2.6698   -0.1090 C   0  0  0  0  0  0  0  0  0  0  0  0
   -2.9075   -2.8226    0.9707 C   0  0  0  0  0  0  0  0  0  0  0  0
    2.1074   -3.2343    0.5085 C   0  0  0  0  0  0  0  0  0  0  0  0
   -4.2175   -2.2737    0.3970 C   0  0  0  0  0  0  0  0  0  0  0  0
    3.3565   -2.8421   -0.2805 C   0  0  0  0  0  0  0  0  0  0  0  0
   -0.1244    2.9095    0.5936 C   0  0  0  0  0  0  0  0  0  0  0  0
    1.2704    3.4756    0.3154 C   0  0  0  0  0  0  0  0  0  0  0  0
   -4.2528   -0.7735    0.3477 C   0  0  0  0  0  0  0  0  0  0  0  0
   -1.1315    3.3788   -0.4596 C   0  0  0  0  0  0  0  0  0  0  0  0
    2.3036    3.0939    1.3776 C   0  0  0  0  0  0  0  0  0  0  0  0
   -4.4705   -0.0693   -0.7731 C   0  0  0  0  0  0  0  0  0  0  0  0
   -4.5021    1.4303   -0.8238 C   0  0  0  0  0  0  0  0  0  0  0  0
    3.5994   -1.3492   -0.3075 C   0  0  0  0  0  0  0  0  0  0  0  0
   -2.4927    2.7989   -0.2062 C   0  0  0  0  0  0  0  0  0  0  0  0
   -3.1371    2.0025   -1.0723 C   0  0  0  0  0  0  0  0  0  0  0  0
    3.6734    3.7116    1.1431 C   0  0  0  0  0  0  0  0  0  0  0  0
    4.6420    0.3480   -1.5844 C   0  0  0  0  0  0  0  0  0  0  0  0
  1 17  1  0
  1 21  1  0
  2 17  2  0
  3  4  1  0
  3  5  1  0
  4  6  1  0
  5  7  1  0
  6  8  1  0
  7  9  1  0
  8 12  1  0
  9 17  1  0
 10 11  1  0
 10 13  1  0
 11 14  1  0
 12 15  2  0
 13 18  1  0
 14 20  1  0
 15 16  1  0
 16 19  1  0
 18 19  2  0
M  END
>  <PUBCHEM_COMPOUND_CID>  (1) 
8203

>  <PUBCHEM_CONFORMER_RMSD>  (1) 
1.4

>  <PUBCHEM_CONFORMER_DIVERSEORDER>  (1) 
1
127
35
135
98
74
24
57
6
81
136
9
5
25
85
147
137
106
47
51
40
142
59
156
123
33
48
42
27
46
164
2
53
73
105
15
86
143
68
17
31
39
23
88
63
4
28
94
97
62
92
107
138
64
145
154
89
12
37
104
79
157
87
20
90
141
44
18
100
91
10
110
158
77
131
19
155
96
148
66
140
99
117
146
162
75
11
103
61
3
130
60
144
67
32
124
16
54
134
80
52
84
43
126
45
114
50
150
128
13
14
119
95
7
149
102
72
160
55
76
115
120
116
129
71
36
82
165
153
78
83
22
26
132
21
30
93
112
121
139
113
152
65
69
125
163
58
56
29
108
151
111
118
122
70
159
34
49
109
101
41
161
133
38
8

>  <PUBCHEM_MMFF94_PARTIAL_CHARGES>  (1) 
16
1 -0.43
12 -0.29
13 0.14
15 -0.29
16 0.28
17 0.66
18 -0.29
19 -0.29
2 -0.57
21 0.28
40 0.15
45 0.15
48 0.15
49 0.15
8 0.14
9 0.06

>  <PUBCHEM_EFFECTIVE_ROTOR_COUNT>  (1) 
15

>  <PUBCHEM_PHARMACOPHORE_FEATURES>  (1) 
3
1 2 acceptor
1 20 hydrophobe
5 10 11 13 14 18 hydrophobe

>  <PUBCHEM_HEAVY_ATOM_COUNT>  (1) 
21

>  <PUBCHEM_ATOM_DEF_STEREO_COUNT>  (1) 
0

>  <PUBCHEM_ATOM_UDEF_STEREO_COUNT>  (1) 
0

>  <PUBCHEM_BOND_DEF_STEREO_COUNT>  (1) 
0

>  <PUBCHEM_BOND_UDEF_STEREO_COUNT>  (1) 
2

>  <PUBCHEM_ISOTOPIC_ATOM_COUNT>  (1) 
0

>  <PUBCHEM_COMPONENT_COUNT>  (1) 
1

>  <PUBCHEM_CACTVS_TAUTO_COUNT>  (1) 
1

>  <PUBCHEM_CONFORMER_ID>  (1) 
0000200B00000001

>  <PUBCHEM_MMFF94_ENERGY>  (1) 
3.4443

>  <PUBCHEM_FEATURE_SELFOVERLAP>  (1) 
15.223

>  <PUBCHEM_SHAPE_FINGERPRINT>  (1) 
12038231 1 17761211420265225363
14251757 17 18411133666703494921
14251757 5 18335150781805438279
14251764 38 18119252753055271991
14363568 33 17902816363402788099
14647877 51 18412539946718631520
14932702 115 18269556035521787680
20531524 4 18337379513433939208
20621476 13 18340198695459524042
20764821 26 18265329693176144420
20765182 40 18336541625876879378
21141583 151 18123747556847758019
21344244 246 18051393366119012311
21734292 116 18335423417871368087
238918 7 17911223233619951360
325973 47 18123189004661500454
463206 1 17979636728079591056
5047190 48 17258212402721110128
5047190 69 18412259546243250544
532947 4 18195522829995752659
6433294 58 18410853265600723384
9980921 221 17835268661674123894

>  <PUBCHEM_SHAPE_MULTIPOLES>  (1) 
420.43
10.24
6.82
1.23
0.63
2.4
0.15
-1.01
2.54
-2.56
-1.86
-0.84
0.41
2.98

>  <PUBCHEM_SHAPE_SELFOVERLAP>  (1) 
778.463

>  <PUBCHEM_SHAPE_VOLUME>  (1) 
263.7

>  <PUBCHEM_COORDINATE_TYPE>  (1) 
2
5
10

$$$$
