8204
     RDKit          3D

 16 15  0  0  0  0  0  0  0  0999 V2000
    5.1411    0.3431   -0.3439 N   0  0  0  0  0  0  0  0  0  0  0  0
    7.2852    0.3494    0.7390 N   0  0  0  0  0  0  0  0  0  0  0  0
    6.5866    2.1506   -0.4704 N   0  0  0  0  0  0  0  0  0  0  0  0
   -1.5164   -0.8009   -0.2308 C   0  0  0  0  0  0  0  0  0  0  0  0
   -2.6916    0.0801    0.2065 C   0  0  0  0  0  0  0  0  0  0  0  0
   -0.1562   -0.2656    0.2230 C   0  0  0  0  0  0  0  0  0  0  0  0
   -4.0892   -0.4456   -0.1402 C   0  0  0  0  0  0  0  0  0  0  0  0
    1.0193   -1.1398   -0.2254 C   0  0  0  0  0  0  0  0  0  0  0  0
   -5.2161    0.5062    0.2687 C   0  0  0  0  0  0  0  0  0  0  0  0
    2.3822   -0.5924    0.2065 C   0  0  0  0  0  0  0  0  0  0  0  0
   -6.6058    0.0209   -0.1568 C   0  0  0  0  0  0  0  0  0  0  0  0
    3.5205   -1.4887   -0.2925 C   0  0  0  0  0  0  0  0  0  0  0  0
   -7.7318    0.9820    0.2260 C   0  0  0  0  0  0  0  0  0  0  0  0
    4.8903   -1.0044    0.1694 C   0  0  0  0  0  0  0  0  0  0  0  0
   -9.0935    0.4183   -0.1514 C   0  0  0  0  0  0  0  0  0  0  0  0
    6.2752    0.8866   -0.0277 C   0  0  0  0  0  0  0  0  0  0  0  0
  1 14  1  0
  1 16  2  3
  2 16  1  0
  3 16  1  0
  4  5  1  0
  4  6  1  0
  5  7  1  0
  6  8  1  0
  7  9  1  0
  8 10  1  0
  9 11  1  0
 10 12  1  0
 11 13  1  0
 12 14  1  0
 13 15  1  0
M  END
>  <PUBCHEM_COMPOUND_CID>  (1) 
8204

>  <PUBCHEM_CONFORMER_RMSD>  (1) 
1.4

>  <PUBCHEM_CONFORMER_DIVERSEORDER>  (1) 
1
26
12
9
3
24
20
8
16
2
10
13
28
30
31
4
18
27
19
29
6
23
25
11
17
21
15
14
5
7
22

>  <PUBCHEM_MMFF94_PARTIAL_CHARGES>  (1) 
9
1 -0.7
14 0.25
16 0.55
2 -0.85
3 -0.85
42 0.4
43 0.4
44 0.4
45 0.4

>  <PUBCHEM_EFFECTIVE_ROTOR_COUNT>  (1) 
11

>  <PUBCHEM_PHARMACOPHORE_FEATURES>  (1) 
4
1 15 hydrophobe
1 2 donor
1 3 donor
4 1 2 3 16 cation

>  <PUBCHEM_HEAVY_ATOM_COUNT>  (1) 
16

>  <PUBCHEM_ATOM_DEF_STEREO_COUNT>  (1) 
0

>  <PUBCHEM_ATOM_UDEF_STEREO_COUNT>  (1) 
0

>  <PUBCHEM_BOND_DEF_STEREO_COUNT>  (1) 
0

>  <PUBCHEM_BOND_UDEF_STEREO_COUNT>  (1) 
0

>  <PUBCHEM_ISOTOPIC_ATOM_COUNT>  (1) 
0

>  <PUBCHEM_COMPONENT_COUNT>  (1) 
1

>  <PUBCHEM_CACTVS_TAUTO_COUNT>  (1) 
2

>  <PUBCHEM_CONFORMER_ID>  (1) 
0000200C00000001

>  <PUBCHEM_MMFF94_ENERGY>  (1) 
11.3764

>  <PUBCHEM_FEATURE_SELFOVERLAP>  (1) 
20.353

>  <PUBCHEM_SHAPE_FINGERPRINT>  (1) 
10066227 49 10087650290389349893
11315181 36 18272371967754840955
11638347 137 16515681118131827450
125118 31 18040720238189184237
13073987 5 16371277819386429999
13668630 136 12463565180368055765
14123256 10 17775565333938467825
14216079 64 9799698094820971112
14251757 52 18409165506514232529
14251764 18 18060139826087002065
14251764 46 18202281390722551374
14729087 3 17676202439079180917
15048467 5 18413388739218936190
155225 1 18413107282060775040
155225 6 17680159761685272988
16120349 18 18408882966755196325
17093844 174 17603589626292500643
195137 175 17704079465379677593
20157964 124 18409449163925413254
20281389 69 18186800249274755717
20735858 18 14634868647771087171
20767249 213 18411700984691461707
21095086 128 9655569709276017677
21130983 4 18410013238542639443
21150785 3 17346880052979088893
220451 1 16486969575443972511
22224240 67 17676206871053173539
23035841 295 11314313845669611937
23521765 1 18342457020125181595
246663 6 11095882679356811557
33684 2 17988923353442629378
4325135 7 18272933816814850628
59682541 35 17894355488842163297
59755656 215 13183026206712916069
6438161 24 12031794630783807292
67123 10 18411418415521373023
8209 1 18060699477489670043

>  <PUBCHEM_SHAPE_MULTIPOLES>  (1) 
314.33
27.69
1.36
0.68
22.12
0.31
-0.01
12.43
-0.22
-2.46
0.16
-0.18
0.02
-0.42

>  <PUBCHEM_SHAPE_SELFOVERLAP>  (1) 
569.552

>  <PUBCHEM_SHAPE_VOLUME>  (1) 
198.8

>  <PUBCHEM_COORDINATE_TYPE>  (1) 
2
5
10

$$$$
