8208
     RDKit          3D

 15 14  0  0  0  0  0  0  0  0999 V2000
   -9.2461    0.6456    0.2281 Br  0  0  0  0  0  0  0  0  0  0  0  0
    0.0209   -0.5089   -0.0378 C   0  0  0  0  0  0  0  0  0  0  0  0
    1.3136    0.3131   -0.0677 C   0  0  0  0  0  0  0  0  0  0  0  0
   -1.2463    0.3480   -0.0882 C   0  0  0  0  0  0  0  0  0  0  0  0
    2.6147   -0.4847    0.0655 C   0  0  0  0  0  0  0  0  0  0  0  0
   -2.5358   -0.4794   -0.0624 C   0  0  0  0  0  0  0  0  0  0  0  0
    3.8710    0.3839   -0.0288 C   0  0  0  0  0  0  0  0  0  0  0  0
   -3.8407    0.3230   -0.0672 C   0  0  0  0  0  0  0  0  0  0  0  0
    5.1724   -0.4123    0.1139 C   0  0  0  0  0  0  0  0  0  0  0  0
   -5.1294   -0.5043   -0.1137 C   0  0  0  0  0  0  0  0  0  0  0  0
    6.4301    0.4429   -0.0497 C   0  0  0  0  0  0  0  0  0  0  0  0
   -6.3988    0.3499   -0.0195 C   0  0  0  0  0  0  0  0  0  0  0  0
    7.6980   -0.3952    0.1170 C   0  0  0  0  0  0  0  0  0  0  0  0
   -7.6732   -0.4802    0.0216 C   0  0  0  0  0  0  0  0  0  0  0  0
    8.9495    0.4585   -0.0110 C   0  0  0  0  0  0  0  0  0  0  0  0
  1 14  1  0
  2  3  1  0
  2  4  1  0
  3  5  1  0
  4  6  1  0
  5  7  1  0
  6  8  1  0
  7  9  1  0
  8 10  1  0
  9 11  1  0
 10 12  1  0
 11 13  1  0
 12 14  1  0
 13 15  1  0
M  END
>  <PUBCHEM_COMPOUND_CID>  (1) 
8208

>  <PUBCHEM_CONFORMER_RMSD>  (1) 
1.2

>  <PUBCHEM_CONFORMER_DIVERSEORDER>  (1) 
1
91
18
86
70
73
52
120
16
119
72
8
80
96
66
106
37
55
19
87
59
116
109
4
39
88
40
38
35
32
84
101
24
43
49
67
95
58
53
92
2
45
69
56
3
44
26
105
74
30
79
98
41
81
15
46
110
112
23
25
94
77
111
14
89
47
51
85
71
54
5
11
27
100
63
9
93
99
31
48
104
13
21
118
60
28
22
12
7
113
34
6
102
33
20
103
61
117
83
90
82
76
68
10
62
17
64
50
42
75
57
115
29
114
78
108
107
65
36
97

>  <PUBCHEM_MMFF94_PARTIAL_CHARGES>  (1) 
2
1 -0.23
14 0.23

>  <PUBCHEM_EFFECTIVE_ROTOR_COUNT>  (1) 
12

>  <PUBCHEM_PHARMACOPHORE_FEATURES>  (1) 
2
1 1 hydrophobe
1 15 hydrophobe

>  <PUBCHEM_HEAVY_ATOM_COUNT>  (1) 
15

>  <PUBCHEM_ATOM_DEF_STEREO_COUNT>  (1) 
0

>  <PUBCHEM_ATOM_UDEF_STEREO_COUNT>  (1) 
0

>  <PUBCHEM_BOND_DEF_STEREO_COUNT>  (1) 
0

>  <PUBCHEM_BOND_UDEF_STEREO_COUNT>  (1) 
0

>  <PUBCHEM_ISOTOPIC_ATOM_COUNT>  (1) 
0

>  <PUBCHEM_COMPONENT_COUNT>  (1) 
1

>  <PUBCHEM_CACTVS_TAUTO_COUNT>  (1) 
1

>  <PUBCHEM_CONFORMER_ID>  (1) 
0000201000000001

>  <PUBCHEM_MMFF94_ENERGY>  (1) 
-1.9074

>  <PUBCHEM_FEATURE_SELFOVERLAP>  (1) 
10.149

>  <PUBCHEM_SHAPE_FINGERPRINT>  (1) 
11638347 137 15936404525345248024
12091667 2 18411418415283898751
14123256 10 18410573985151451137
14251764 18 18408039597985689730
14251764 46 18410575084668373155
14428016 248 18408611369791985093
17834076 25 18410292514469727286
20621476 8 18411417302391497069
22224240 67 16153426164605580530
232437 2 18335421265886972379
23521765 1 18341894095129024870
23581129 1 18409448085244608519
246663 6 12757151273105169041
28498 318 17132117922566266780
33684 2 18410855455833201003
4325135 7 18341895190356300060
59567204 34 17774726356267292193
67123 10 18410573998036353031
8209 1 18410855464423129094

>  <PUBCHEM_SHAPE_MULTIPOLES>  (1) 
314.64
32.65
0.83
0.63
2.3
0.01
-0.01
4.15
-1.63
0.25
-0.01
0.11
0.01
-0.17

>  <PUBCHEM_SHAPE_SELFOVERLAP>  (1) 
544.848

>  <PUBCHEM_SHAPE_VOLUME>  (1) 
208.8

>  <PUBCHEM_COORDINATE_TYPE>  (1) 
2
5
10

$$$$
