8209
     RDKit          3D

 15 14  0  0  0  0  0  0  0  0999 V2000
    8.8022    0.4015   -0.1390 O   0  0  0  0  0  0  0  0  0  0  0  0
    0.0381   -0.4432    0.0623 C   0  0  0  0  0  0  0  0  0  0  0  0
   -1.2640    0.3602    0.1517 C   0  0  0  0  0  0  0  0  0  0  0  0
    1.2957    0.4292    0.0853 C   0  0  0  0  0  0  0  0  0  0  0  0
   -2.5576   -0.4609    0.1061 C   0  0  0  0  0  0  0  0  0  0  0  0
    2.5646   -0.4239    0.0179 C   0  0  0  0  0  0  0  0  0  0  0  0
   -3.8237    0.3984    0.1401 C   0  0  0  0  0  0  0  0  0  0  0  0
    3.8553    0.4027    0.0249 C   0  0  0  0  0  0  0  0  0  0  0  0
   -5.1143   -0.4188    0.0158 C   0  0  0  0  0  0  0  0  0  0  0  0
    5.1250   -0.4538    0.0325 C   0  0  0  0  0  0  0  0  0  0  0  0
   -6.4118    0.3942   -0.0490 C   0  0  0  0  0  0  0  0  0  0  0  0
    6.4114    0.3717   -0.0307 C   0  0  0  0  0  0  0  0  0  0  0  0
   -7.6711   -0.4707   -0.1192 C   0  0  0  0  0  0  0  0  0  0  0  0
    7.6783   -0.4693   -0.1093 C   0  0  0  0  0  0  0  0  0  0  0  0
   -8.9281    0.3828   -0.1892 C   0  0  0  0  0  0  0  0  0  0  0  0
  1 14  1  0
  2  3  1  0
  2  4  1  0
  3  5  1  0
  4  6  1  0
  5  7  1  0
  6  8  1  0
  7  9  1  0
  8 10  1  0
  9 11  1  0
 10 12  1  0
 11 13  1  0
 12 14  1  0
 13 15  1  0
M  END
>  <PUBCHEM_COMPOUND_CID>  (1) 
8209

>  <PUBCHEM_CONFORMER_RMSD>  (1) 
1.2

>  <PUBCHEM_CONFORMER_DIVERSEORDER>  (1) 
1
107
81
52
48
10
108
19
30
8
78
40
28
5
42
7
66
90
61
64
11
12
69
88
39
54
46
86
22
36
25
4
99
96
75
2
49
15
76
21
27
85
82
14
91
32
84
45
103
58
56
37
16
92
67
70
18
33
60
20
17
6
100
83
34
73
59
26
102
71
23
13
68
89
9
79
106
62
38
43
44
93
41
57
95
29
77
65
35
3
87
94
51
72
24
80
63
105
101
55
97
53
74
98
47
31
50
104

>  <PUBCHEM_MMFF94_PARTIAL_CHARGES>  (1) 
3
1 -0.68
14 0.28
45 0.4

>  <PUBCHEM_EFFECTIVE_ROTOR_COUNT>  (1) 
12

>  <PUBCHEM_PHARMACOPHORE_FEATURES>  (1) 
3
1 1 acceptor
1 1 donor
1 15 hydrophobe

>  <PUBCHEM_HEAVY_ATOM_COUNT>  (1) 
15

>  <PUBCHEM_ATOM_DEF_STEREO_COUNT>  (1) 
0

>  <PUBCHEM_ATOM_UDEF_STEREO_COUNT>  (1) 
0

>  <PUBCHEM_BOND_DEF_STEREO_COUNT>  (1) 
0

>  <PUBCHEM_BOND_UDEF_STEREO_COUNT>  (1) 
0

>  <PUBCHEM_ISOTOPIC_ATOM_COUNT>  (1) 
0

>  <PUBCHEM_COMPONENT_COUNT>  (1) 
1

>  <PUBCHEM_CACTVS_TAUTO_COUNT>  (1) 
1

>  <PUBCHEM_CONFORMER_ID>  (1) 
0000201100000001

>  <PUBCHEM_MMFF94_ENERGY>  (1) 
-1.9544

>  <PUBCHEM_FEATURE_SELFOVERLAP>  (1) 
15.223

>  <PUBCHEM_SHAPE_FINGERPRINT>  (1) 
11315181 36 18273500083469202027
12091667 2 18333450946399571211
14123256 10 18410855455838469255
14251764 18 18411700967416445915
14251764 46 18409167709790179075
17834076 25 18410575088958059219
18006028 8 17632577149655437465
20621476 8 18040432187648697855
21150785 3 18410575084663078922
22224240 67 18409165524047750202
232437 2 18342458140373323591
23521765 1 18341895190345678851
246663 6 13901910015850289749
28498 318 18412826867581874694
33684 2 18410573980856490347
4325135 7 18343301465738723173
59682541 35 9943518618254684423
67123 10 18410855477308030982
8209 1 18410855460128161794

>  <PUBCHEM_SHAPE_MULTIPOLES>  (1) 
302.82
30.04
0.79
0.62
0.09
0.01
0
-1.09
-2.43
0.04
0
0.07
0
0.01

>  <PUBCHEM_SHAPE_SELFOVERLAP>  (1) 
536.469

>  <PUBCHEM_SHAPE_VOLUME>  (1) 
197.6

>  <PUBCHEM_COORDINATE_TYPE>  (1) 
2
5
10

$$$$
