8220
     RDKit          3D

 19 18  0  0  0  0  0  0  0  0999 V2000
   -4.0898    0.6822    1.3122 N   0  0  0  0  0  0  0  0  0  0  0  0
    1.2359    2.2471    0.3647 C   0  0  0  0  0  0  0  0  0  0  0  0
    1.7893    1.5323    1.6018 C   0  0  0  0  0  0  0  0  0  0  0  0
   -0.2659    1.9974    0.2029 C   0  0  0  0  0  0  0  0  0  0  0  0
    3.2980    1.7391    1.7820 C   0  0  0  0  0  0  0  0  0  0  0  0
    0.8744   -2.2373   -0.2836 C   0  0  0  0  0  0  0  0  0  0  0  0
   -0.5798   -2.5790   -0.6254 C   0  0  0  0  0  0  0  0  0  0  0  0
    1.8629   -2.6162   -1.3908 C   0  0  0  0  0  0  0  0  0  0  0  0
   -0.8662    2.6738   -1.0340 C   0  0  0  0  0  0  0  0  0  0  0  0
   -1.6261   -2.1518    0.4093 C   0  0  0  0  0  0  0  0  0  0  0  0
    4.1587    1.2308    0.6192 C   0  0  0  0  0  0  0  0  0  0  0  0
    3.3179   -2.2690   -1.0583 C   0  0  0  0  0  0  0  0  0  0  0  0
   -2.3607    2.4414   -1.2643 C   0  0  0  0  0  0  0  0  0  0  0  0
   -3.0882   -2.4304    0.0372 C   0  0  0  0  0  0  0  0  0  0  0  0
    3.9450   -0.2306    0.3463 C   0  0  0  0  0  0  0  0  0  0  0  0
    3.5298   -0.8075   -0.7912 C   0  0  0  0  0  0  0  0  0  0  0  0
   -4.1227   -1.9335    1.0486 C   0  0  0  0  0  0  0  0  0  0  0  0
   -2.9097    3.1831   -2.4716 C   0  0  0  0  0  0  0  0  0  0  0  0
   -4.1027   -0.4721    1.1950 C   0  0  0  0  0  0  0  0  0  0  0  0
  1 19  3  0
  2  3  1  0
  2  4  1  0
  3  5  1  0
  4  9  1  0
  5 11  1  0
  6  7  1  0
  6  8  1  0
  7 10  1  0
  8 12  1  0
  9 13  1  0
 10 14  1  0
 11 15  1  0
 12 16  1  0
 13 18  1  0
 14 17  1  0
 15 16  2  0
 17 19  1  0
M  END
>  <PUBCHEM_COMPOUND_CID>  (1) 
8220

>  <PUBCHEM_CONFORMER_RMSD>  (1) 
1.4

>  <PUBCHEM_CONFORMER_DIVERSEORDER>  (1) 
1
3
107
50
25
89
31
109
27
74
33
83
134
85
81
24
4
64
59
79
136
49
60
56
70
55
35
17
121
127
123
76
105
65
34
112
30
19
135
90
120
114
99
92
12
66
9
68
129
80
47
108
84
13
94
62
45
58
61
20
54
6
53
39
77
111
48
71
88
46
102
57
42
118
18
73
15
10
103
5
28
40
115
97
124
51
75
29
67
133
41
130
91
32
2
69
113
82
7
98
78
72
126
104
96
21
63
52
37
100
44
43
87
38
11
23
22
125
106
26
101
36
132
8
14
131
110
128
16
95
117
93
86
119
122
116

>  <PUBCHEM_MMFF94_PARTIAL_CHARGES>  (1) 
9
1 -0.56
11 0.14
12 0.14
15 -0.29
16 -0.29
17 0.2
19 0.36
46 0.15
47 0.15

>  <PUBCHEM_EFFECTIVE_ROTOR_COUNT>  (1) 
14

>  <PUBCHEM_PHARMACOPHORE_FEATURES>  (1) 
2
1 1 acceptor
1 18 hydrophobe

>  <PUBCHEM_HEAVY_ATOM_COUNT>  (1) 
19

>  <PUBCHEM_ATOM_DEF_STEREO_COUNT>  (1) 
0

>  <PUBCHEM_ATOM_UDEF_STEREO_COUNT>  (1) 
0

>  <PUBCHEM_BOND_DEF_STEREO_COUNT>  (1) 
0

>  <PUBCHEM_BOND_UDEF_STEREO_COUNT>  (1) 
1

>  <PUBCHEM_ISOTOPIC_ATOM_COUNT>  (1) 
0

>  <PUBCHEM_COMPONENT_COUNT>  (1) 
1

>  <PUBCHEM_CACTVS_TAUTO_COUNT>  (1) 
1

>  <PUBCHEM_CONFORMER_ID>  (1) 
0000201C00000001

>  <PUBCHEM_MMFF94_ENERGY>  (1) 
-0.6953

>  <PUBCHEM_FEATURE_SELFOVERLAP>  (1) 
10.148

>  <PUBCHEM_SHAPE_FINGERPRINT>  (1) 
10688039 33 18187363289259141870
10708813 3 18058750085637624555
11595378 159 17749107772823197763
12422481 6 18271509967106832690
13075007 39 17900566741148598179
13402501 40 18412269406385719435
14251757 17 18339641114262779977
144659 39 18192687022003838832
17859628 37 18200038485501507734
238 59 17982430621406062316
3524813 1 18340775844754401070
437795 51 17977380539558812237
5047190 48 17979633760268011768
508706 21 18334289834578840687

>  <PUBCHEM_SHAPE_MULTIPOLES>  (1) 
386.03
8.61
4.79
1.86
1.11
0.51
0.35
-0.96
-2.42
2.09
2.21
0.68
1.24
4.09

>  <PUBCHEM_SHAPE_SELFOVERLAP>  (1) 
702.623

>  <PUBCHEM_SHAPE_VOLUME>  (1) 
243.3

>  <PUBCHEM_COORDINATE_TYPE>  (1) 
2
5
10

$$$$
