8223
     RDKit          3D

 43 50  0  0  1  0  0  0  0  0999 V2000
   -1.3765    1.6080   -1.3125 O   0  0  0  0  0  0  0  0  0  0  0  0
   -1.9349    1.2823    0.9482 O   0  0  0  0  0  0  0  0  0  0  0  0
   -6.3213    1.0626    0.9424 O   0  0  0  0  0  0  0  0  0  0  0  0
   -2.7674   -1.5082   -2.1688 O   0  0  0  0  0  0  0  0  0  0  0  0
    1.6298    1.0444   -1.8637 O   0  0  0  0  0  0  0  0  0  0  0  0
   -4.6103    2.4415    0.2639 N   0  0  0  0  0  0  0  0  0  0  0  0
   -3.1739    0.3230   -0.7621 N   0  0  0  0  0  0  0  0  0  0  0  0
   -0.1177   -0.3779   -1.2742 N   0  0  0  0  0  0  0  0  0  0  0  0
    3.8371   -2.6409   -0.8505 N   0  0  0  0  0  0  0  0  0  0  0  0
    8.9537   -0.1552    1.1174 N   0  0  0  0  0  0  0  0  0  0  0  0
   -3.3827    2.6789   -0.4813 C   0  0  0  0  0  0  0  0  0  0  0  0
   -2.4414    1.4938   -0.3625 C   0  0  0  0  0  0  0  0  0  0  0  0
   -2.9047    4.0392    0.0254 C   0  0  0  0  0  0  0  0  0  0  0  0
   -4.4897    0.0073   -0.2149 C   0  0  0  0  0  0  0  0  0  0  0  0
   -5.1190    3.6717    0.8507 C   0  0  0  0  0  0  0  0  0  0  0  0
   -4.2257    4.7659    0.2781 C   0  0  0  0  0  0  0  0  0  0  0  0
   -1.1822    0.3289   -1.9311 C   0  0  0  0  0  0  0  0  0  0  0  0
   -5.2312    1.2144    0.3852 C   0  0  0  0  0  0  0  0  0  0  0  0
   -2.4678   -0.4281   -1.6843 C   0  0  0  0  0  0  0  0  0  0  0  0
   -4.3816   -1.0994    0.8337 C   0  0  0  0  0  0  0  0  0  0  0  0
   -0.9012    0.5194   -3.4100 C   0  0  0  0  0  0  0  0  0  0  0  0
    2.1066   -0.8634   -0.5109 C   0  0  0  0  0  0  0  0  0  0  0  0
    4.9358   -1.6728   -0.5856 C   0  0  0  0  0  0  0  0  0  0  0  0
    1.2057    0.0414   -1.2957 C   0  0  0  0  0  0  0  0  0  0  0  0
   -5.6838   -1.8321    1.0006 C   0  0  0  0  0  0  0  0  0  0  0  0
    2.6807   -1.9457   -1.4348 C   0  0  0  0  0  0  0  0  0  0  0  0
    4.4767   -0.3244    0.0444 C   0  0  0  0  0  0  0  0  0  0  0  0
    6.1611   -2.3546    0.1238 C   0  0  0  0  0  0  0  0  0  0  0  0
    3.1722    0.0035    0.0959 C   0  0  0  0  0  0  0  0  0  0  0  0
    5.5291    0.5971    0.5365 C   0  0  0  0  0  0  0  0  0  0  0  0
    7.1799   -1.3389    0.4964 C   0  0  0  0  0  0  0  0  0  0  0  0
    6.7907    0.0045    0.6883 C   0  0  0  0  0  0  0  0  0  0  0  0
    3.4411   -3.4502    0.3023 C   0  0  0  0  0  0  0  0  0  0  0  0
   -6.6077   -1.3837    1.9357 C   0  0  0  0  0  0  0  0  0  0  0  0
   -5.9477   -2.9483    0.2172 C   0  0  0  0  0  0  0  0  0  0  0  0
    7.8997    0.7323    1.0894 C   0  0  0  0  0  0  0  0  0  0  0  0
    8.5262   -1.4159    0.7628 C   0  0  0  0  0  0  0  0  0  0  0  0
    5.4320    1.9660    0.8212 C   0  0  0  0  0  0  0  0  0  0  0  0
    7.8166    2.0952    1.3764 C   0  0  0  0  0  0  0  0  0  0  0  0
   -7.8160   -2.0632    2.0906 C   0  0  0  0  0  0  0  0  0  0  0  0
   -7.1562   -3.6278    0.3720 C   0  0  0  0  0  0  0  0  0  0  0  0
    6.5562    2.6946    1.2358 C   0  0  0  0  0  0  0  0  0  0  0  0
   -8.0902   -3.1851    1.3086 C   0  0  0  0  0  0  0  0  0  0  0  0
  1 12  1  0
  1 17  1  0
  2 12  1  0
  3 18  2  0
  4 19  2  0
  5 24  2  0
  6 11  1  0
  6 15  1  0
  6 18  1  0
  7 12  1  0
  7 14  1  0
  7 19  1  0
  8 17  1  0
  8 24  1  0
  9 23  1  0
  9 26  1  0
  9 33  1  0
 10 36  1  0
 10 37  1  0
 11 12  1  0
 11 13  1  0
 13 16  1  0
 14 18  1  0
 14 20  1  0
 15 16  1  0
 17 19  1  0
 17 21  1  0
 20 25  1  0
 22 24  1  0
 22 26  1  0
 22 29  1  0
 23 27  1  0
 23 28  1  0
 25 34  2  0
 25 35  1  0
 27 29  2  0
 27 30  1  0
 28 31  1  0
 30 32  2  0
 30 38  1  0
 31 32  1  0
 31 37  2  0
 32 36  1  0
 34 40  1  0
 35 41  2  0
 36 39  2  0
 38 42  2  0
 39 42  1  0
 40 43  2  0
 41 43  1  0
M  END
>  <PUBCHEM_COMPOUND_CID>  (1) 
8223

>  <PUBCHEM_CONFORMER_RMSD>  (1) 
1

>  <PUBCHEM_CONFORMER_DIVERSEORDER>  (1) 
1
21
24
23
31
15
6
19
28
26
9
16
8
12
29
10
34
5
30
22
18
2
3
33
17
27
20
25
14
7
13
32
11
4

>  <PUBCHEM_MMFF94_PARTIAL_CHARGES>  (1) 
52
1 -0.56
10 0.03
11 0.3
12 0.86
14 0.36
15 0.3
17 0.64
18 0.57
19 0.57
2 -0.68
20 0.14
22 0.2
23 0.41
24 0.57
25 -0.14
26 0.27
27 -0.17
28 0.18
29 -0.29
3 -0.57
30 0.03
31 -0.18
33 0.27
34 -0.15
35 -0.15
36 -0.15
37 -0.3
38 -0.15
39 -0.15
4 -0.57
40 -0.15
41 -0.15
42 -0.15
43 -0.15
5 -0.57
54 0.4
55 0.37
6 -0.66
65 0.15
69 0.15
7 -0.66
70 0.15
71 0.15
72 0.15
73 0.27
74 0.15
75 0.15
76 0.15
77 0.15
78 0.15
8 -0.73
9 -0.81

>  <PUBCHEM_EFFECTIVE_ROTOR_COUNT>  (1) 
7

>  <PUBCHEM_PHARMACOPHORE_FEATURES>  (1) 
18
1 1 acceptor
1 10 cation
1 10 donor
1 2 acceptor
1 2 donor
1 3 acceptor
1 4 acceptor
1 5 acceptor
1 8 donor
1 9 cation
5 1 7 12 17 19 rings
5 10 31 32 36 37 rings
5 6 11 13 15 16 rings
6 23 27 28 30 31 32 rings
6 25 34 35 40 41 43 rings
6 30 32 36 38 39 42 rings
6 6 7 11 12 14 18 rings
6 9 22 23 26 27 29 rings

>  <PUBCHEM_HEAVY_ATOM_COUNT>  (1) 
43

>  <PUBCHEM_ATOM_DEF_STEREO_COUNT>  (1) 
6

>  <PUBCHEM_ATOM_UDEF_STEREO_COUNT>  (1) 
0

>  <PUBCHEM_BOND_DEF_STEREO_COUNT>  (1) 
0

>  <PUBCHEM_BOND_UDEF_STEREO_COUNT>  (1) 
0

>  <PUBCHEM_ISOTOPIC_ATOM_COUNT>  (1) 
0

>  <PUBCHEM_COMPONENT_COUNT>  (1) 
1

>  <PUBCHEM_CACTVS_TAUTO_COUNT>  (1) 
2

>  <PUBCHEM_CONFORMER_ID>  (1) 
0000201F00000001

>  <PUBCHEM_MMFF94_ENERGY>  (1) 
128.3374

>  <PUBCHEM_FEATURE_SELFOVERLAP>  (1) 
91.818

>  <PUBCHEM_SHAPE_FINGERPRINT>  (1) 
10 15 18273213088842454196
10100884 174 18114746056957545899
10930396 42 18413112745865577753
10952577 141 8862400704270310011
11399510 152 18341889671460696130
11411753 29 17773899526941711926
11411753 3 18057618563565668823
11456790 92 18341317909463426810
11621639 179 11815078680909115483
12144600 37 18340208492966261026
12758862 11 17968359197002652597
12988421 55 16773801368499474319
13782708 43 16226045587668526780
13811026 1 18409165519641746795
14017579 51 18411141303814606417
14068700 675 18041566931499760343
15064981 113 13046206313122079859
15183329 4 14548727401267654388
15320295 40 17676766587060030387
15328684 2 18114762472248347212
15347590 135 18411420647781007834
15510800 12 17385733542615074011
15664458 50 18128265498104991857
18603816 31 15068634785987005305
18608769 82 18412825806656543515
19303781 99 17386857291186705027
19611394 137 18338800116795795209
20105231 36 18201446861766880998
21130935 74 18262798454976278658
21136928 126 16607736977665836171
21647283 7 18411975850373199152
2747138 104 18409454712400544222
3383291 50 17749394818773977483
3418910 222 18336555983874156396
397830 11 18343025471240723246
3986486 107 11383835983221580882
4073 2 18337954476553162450
4144715 1 18125729980528737628
42767 23 13623527999882763378
4403749 210 18341888550769565807
4408954 87 18338238279477481722
5080951 261 18187078430882053903
5104073 3 18337389319050003858
5109719 28 18060702810458112406
6126387 218 18410574016509153603
9555976 147 18340499854620271697

>  <PUBCHEM_SHAPE_MULTIPOLES>  (1) 
830.67
27.45
4.76
1.94
21.77
2.62
-1.16
-11
18.73
-8.03
1.3
-1.29
-0.15
3.27

>  <PUBCHEM_SHAPE_SELFOVERLAP>  (1) 
1862.477

>  <PUBCHEM_SHAPE_VOLUME>  (1) 
434.5

>  <PUBCHEM_COORDINATE_TYPE>  (1) 
2
5
10

$$$$
