8226
     RDKit          3D

 25 28  0  0  1  0  0  0  0  0999 V2000
   -2.4860    0.4702   -1.4665 O   0  0  0  0  0  0  0  0  0  0  0  0
   -6.0892   -0.2907    1.8259 O   0  0  0  0  0  0  0  0  0  0  0  0
    0.2253   -2.4600   -0.0025 N   0  0  0  0  0  0  0  0  0  0  0  0
    5.6035    0.1905    0.2103 N   0  0  0  0  0  0  0  0  0  0  0  0
   -3.5821    0.2779    0.5782 N   0  0  0  0  0  0  0  0  0  0  0  0
    1.3419   -1.5309   -0.3351 C   0  0  0  0  0  0  0  0  0  0  0  0
    1.0214   -0.0448    0.0074 C   0  0  0  0  0  0  0  0  0  0  0  0
    2.6667   -2.0468    0.3403 C   0  0  0  0  0  0  0  0  0  0  0  0
   -1.3726   -0.6147    0.3447 C   0  0  0  0  0  0  0  0  0  0  0  0
   -1.0672   -1.9016   -0.4257 C   0  0  0  0  0  0  0  0  0  0  0  0
    3.7412   -1.0220    0.2594 C   0  0  0  0  0  0  0  0  0  0  0  0
    2.1389    0.9249   -0.0326 C   0  0  0  0  0  0  0  0  0  0  0  0
    3.4030    0.3365    0.0909 C   0  0  0  0  0  0  0  0  0  0  0  0
   -0.2200    0.3415    0.3497 C   0  0  0  0  0  0  0  0  0  0  0  0
    4.5669    1.0868    0.0650 C   0  0  0  0  0  0  0  0  0  0  0  0
    0.4039   -3.7830   -0.6097 C   0  0  0  0  0  0  0  0  0  0  0  0
   -2.5260    0.0946   -0.2977 C   0  0  0  0  0  0  0  0  0  0  0  0
    5.1126   -1.0917    0.3315 C   0  0  0  0  0  0  0  0  0  0  0  0
    2.0928    2.3160   -0.1850 C   0  0  0  0  0  0  0  0  0  0  0  0
    4.5386    2.4740   -0.0850 C   0  0  0  0  0  0  0  0  0  0  0  0
    3.2742    3.0711   -0.2093 C   0  0  0  0  0  0  0  0  0  0  0  0
   -4.8047    0.9553    0.2115 C   0  0  0  0  0  0  0  0  0  0  0  0
   -5.4960    0.2479   -0.9617 C   0  0  0  0  0  0  0  0  0  0  0  0
   -5.7341    1.0274    1.4234 C   0  0  0  0  0  0  0  0  0  0  0  0
   -6.7531    0.9716   -1.4274 C   0  0  0  0  0  0  0  0  0  0  0  0
  1 17  2  0
  2 24  1  0
  3  6  1  0
  3 10  1  0
  3 16  1  0
  4 15  1  0
  4 18  1  0
  5 17  1  0
  5 22  1  0
  6  7  1  0
  6  8  1  0
  7 12  1  0
  7 14  2  0
  8 11  1  0
  9 10  1  0
  9 14  1  0
  9 17  1  0
 11 13  1  0
 11 18  2  0
 12 13  2  0
 12 19  1  0
 13 15  1  0
 15 20  2  0
 19 21  2  0
 20 21  1  0
 22 23  1  0
 22 24  1  0
 23 25  1  0
M  END
>  <PUBCHEM_COMPOUND_CID>  (1) 
8226

>  <PUBCHEM_CONFORMER_RMSD>  (1) 
0.8

>  <PUBCHEM_CONFORMER_DIVERSEORDER>  (1) 
5
19
24
7
30
9
25
8
18
15
32
13
14
3
20
17
1
27
11
10
28
6
22
23
21
12
26
29
16
2
4
31

>  <PUBCHEM_MMFF94_PARTIAL_CHARGES>  (1) 
30
1 -0.57
10 0.27
11 -0.18
12 0.03
14 -0.29
15 -0.15
16 0.27
17 0.57
18 -0.3
19 -0.15
2 -0.68
20 -0.15
21 -0.15
22 0.3
24 0.28
3 -0.81
32 0.15
36 0.15
37 0.15
38 0.27
39 0.15
4 0.03
40 0.37
41 0.15
5 -0.73
50 0.4
6 0.41
7 -0.17
8 0.18
9 0.2

>  <PUBCHEM_EFFECTIVE_ROTOR_COUNT>  (1) 
5.8

>  <PUBCHEM_PHARMACOPHORE_FEATURES>  (1) 
12
1 1 acceptor
1 2 acceptor
1 2 donor
1 25 hydrophobe
1 3 cation
1 4 cation
1 4 donor
1 5 donor
5 4 11 13 15 18 rings
6 12 13 15 19 20 21 rings
6 3 6 7 9 10 14 rings
6 6 7 8 11 12 13 rings

>  <PUBCHEM_HEAVY_ATOM_COUNT>  (1) 
25

>  <PUBCHEM_ATOM_DEF_STEREO_COUNT>  (1) 
3

>  <PUBCHEM_ATOM_UDEF_STEREO_COUNT>  (1) 
0

>  <PUBCHEM_BOND_DEF_STEREO_COUNT>  (1) 
0

>  <PUBCHEM_BOND_UDEF_STEREO_COUNT>  (1) 
0

>  <PUBCHEM_ISOTOPIC_ATOM_COUNT>  (1) 
0

>  <PUBCHEM_COMPONENT_COUNT>  (1) 
1

>  <PUBCHEM_CACTVS_TAUTO_COUNT>  (1) 
2

>  <PUBCHEM_CONFORMER_ID>  (1) 
0000202200000005

>  <PUBCHEM_MMFF94_ENERGY>  (1) 
56.4471

>  <PUBCHEM_FEATURE_SELFOVERLAP>  (1) 
61.143

>  <PUBCHEM_SHAPE_FINGERPRINT>  (1) 
10090160 65 18341894061207337931
10411042 1 17834109745947604334
10693767 8 17916023461016801126
10763959 59 17967809444713851485
1100329 8 18411415142376647962
11045977 3 17894917321502850427
11796584 16 13110960912025440869
12236239 1 17632293454132804305
12730499 353 18333736814152191555
12788726 201 17632031796278448096
12838862 33 18339062862216855456
13140716 1 18265046007092856866
13402501 40 18114455678513039109
13540713 5 18119513587352580938
13583140 156 17241025657156585163
13631057 29 17987507273710504543
13785724 45 17836089966088386378
13878862 14 18262496170175981596
14251764 75 18194130843658826236
14464042 87 17917998247791649672
14790565 3 18341333374548460311
15081414 286 18269278976098147534
15183329 4 18343301465812998349
15196674 1 18338515352222229862
15475509 35 16588298346498173490
15475509 8 17986131642618304532
16728300 4 17245518120799408546
20028762 73 18202278070264530230
20157964 124 18410289195056113133
20612939 158 18411978057511375397
21033648 144 18261945349325696437
21033648 29 17313370232672862045
21033650 10 16414384236977762872
21054139 6 18130493211356497695
21197605 99 18264782128292060539
21236236 1 18340205314769622079
21267235 1 18337115558425413578
21307412 95 17844274911835680894
21623969 137 18336838537023886059
21792961 116 17896315823580302710
23558518 356 17828763177415014266
23559900 14 18201719583615520202
23569917 315 18272652350444958263
23845131 108 18187361056203942939
3178227 256 18335146362727079322
335352 9 18411135836579844590
34797466 226 14692277491557995867
350125 39 18267585891231766259
38695281 34 18343298141788022727
474 4 18413387626980772507
5104073 3 18263638627645376426
59755656 215 18188207606872983903
7832392 63 18267017435810344190
8272917 22 18342743974863061614
9999458 23 18186801383679040710

>  <PUBCHEM_SHAPE_MULTIPOLES>  (1) 
487.81
14.46
3.05
1.05
19.13
1.19
0.1
-6.94
1.06
-3.47
-0.5
2.07
-0.1
-0.2

>  <PUBCHEM_SHAPE_SELFOVERLAP>  (1) 
1059.818

>  <PUBCHEM_SHAPE_VOLUME>  (1) 
266.7

>  <PUBCHEM_COORDINATE_TYPE>  (1) 
2
5
10

$$$$
