823
     RDKit          3D

 16 15  0  0  1  0  0  0  0  0999 V2000
   -0.4805    2.1741    0.1151 P   0  0  0  0  0  0  0  0  0  0  0  0
    0.7971    1.4189    0.7567 O   0  0  0  0  0  0  0  0  0  0  0  0
   -1.4307    0.9875   -0.4438 O   0  0  0  0  0  0  0  0  0  0  0  0
    0.0941    2.8508   -1.2382 O   0  0  0  0  0  0  0  0  0  0  0  0
   -3.9128   -0.2460   -0.9620 O   0  0  0  0  0  0  0  0  0  0  0  0
   -1.1651    3.1392    1.0401 O   0  0  0  0  0  0  0  0  0  0  0  0
   -4.3392   -2.8146   -0.0088 O   0  0  0  0  0  0  0  0  0  0  0  0
    3.4728   -1.0563   -0.0431 N   0  0  0  0  0  0  0  0  0  0  0  0
    2.6700   -0.0816    0.8063 C   0  0  0  0  0  0  0  0  0  0  0  0
    2.5773   -2.2074   -0.4780 C   0  0  0  0  0  0  0  0  0  0  0  0
    4.6373   -1.5997    0.7724 C   0  0  0  0  0  0  0  0  0  0  0  0
    4.0069   -0.3367   -1.2731 C   0  0  0  0  0  0  0  0  0  0  0  0
    1.5298    0.4803   -0.0197 C   0  0  0  0  0  0  0  0  0  0  0  0
   -2.8804   -0.9248   -0.2430 C   0  0  0  0  0  0  0  0  0  0  0  0
   -2.0340    0.1092    0.4907 C   0  0  0  0  0  0  0  0  0  0  0  0
   -3.5427   -1.8930    0.7284 C   0  0  0  0  0  0  0  0  0  0  0  0
  1  2  1  0
  1  3  1  0
  1  4  1  0
  1  6  2  0
  2 13  1  0
  3 15  1  0
  5 14  1  0
  7 16  1  0
  8  9  1  0
  8 10  1  0
  8 11  1  0
  8 12  1  0
  9 13  1  0
 14 15  1  0
 14 16  1  0
M  CHG  1   8   1
M  END
>  <PUBCHEM_COMPOUND_CID>  (1) 
823

>  <PUBCHEM_CONFORMER_RMSD>  (1) 
0.8

>  <PUBCHEM_CONFORMER_DIVERSEORDER>  (1) 
1
35
56
103
20
184
100
166
19
142
2
186
43
29
110
118
154
14
165
62
36
78
15
17
42
134
95
141
168
109
156
111
33
138
24
94
32
163
59
52
150
69
170
182
128
131
31
144
96
13
173
7
89
120
65
135
11
188
9
10
73
50
124
127
187
8
153
136
30
48
178
82
64
22
74
4
72
145
55
180
116
126
137
143
115
84
3
112
105
106
171
177
140
149
191
158
151
60
57
159
146
189
125
41
99
6
40
167
91
81
169
66
70
176
174
185
79
97
5
58
133
160
122
98
37
104
129
130
77
85
157
28
21
152
12
147
164
27
71
46
121
90
148
38
183
101
107
175
162
179
80
87
25
102
190
51
181
18
63
172
132
76
114
26
83
23
47
53
68
88
86
75
67
119
93
16
139
161
34
39
117
44
61
49
123
155
108
92
54
45
113

>  <PUBCHEM_MMFF94_PARTIAL_CHARGES>  (1) 
19
1 1.51
10 0.5
11 0.5
12 0.5
13 0.28
14 0.28
15 0.28
16 0.28
2 -0.55
3 -0.55
35 0.5
36 0.4
37 0.4
4 -0.77
5 -0.68
6 -0.7
7 -0.68
8 -1.01
9 0.5

>  <PUBCHEM_EFFECTIVE_ROTOR_COUNT>  (1) 
8

>  <PUBCHEM_PHARMACOPHORE_FEATURES>  (1) 
7
1 4 acceptor
1 5 acceptor
1 5 donor
1 6 acceptor
1 7 acceptor
1 7 donor
1 8 cation

>  <PUBCHEM_HEAVY_ATOM_COUNT>  (1) 
16

>  <PUBCHEM_ATOM_DEF_STEREO_COUNT>  (1) 
0

>  <PUBCHEM_ATOM_UDEF_STEREO_COUNT>  (1) 
1

>  <PUBCHEM_BOND_DEF_STEREO_COUNT>  (1) 
0

>  <PUBCHEM_BOND_UDEF_STEREO_COUNT>  (1) 
0

>  <PUBCHEM_ISOTOPIC_ATOM_COUNT>  (1) 
0

>  <PUBCHEM_COMPONENT_COUNT>  (1) 
1

>  <PUBCHEM_CACTVS_TAUTO_COUNT>  (1) 
1

>  <PUBCHEM_CONFORMER_ID>  (1) 
0000033700000001

>  <PUBCHEM_MMFF94_ENERGY>  (1) 
21.0912

>  <PUBCHEM_FEATURE_SELFOVERLAP>  (1) 
35.542

>  <PUBCHEM_SHAPE_FINGERPRINT>  (1) 
10616163 171 18268996388630364382
10618630 7 18411979165454435210
12363563 72 18410577309588403443
12553582 1 18340217339944340754
14123255 352 10375874064917683051
14251705 54 18338800125454469883
14251731 5 18410293648510379291
15352361 1 18410853274122281131
18186145 218 11386357106605179089
18915474 69 18259990366328336430
20281475 54 18409733975584986073
20291156 8 18411421747440185051
20388580 30 18262521527762603709
20645477 70 17974279130519955559
20671657 53 18260548960884180717
20871998 22 18338793532669062801
20871999 31 18113336401418899157
21665056 4 17617659856236592765
23557571 272 18057323886397507558
23559900 14 18339629071639101888
25 1 10881394314174887222
4416823 128 18410856598521504579
81228 2 18337389318828854361
9709674 26 18127128568014594454

>  <PUBCHEM_SHAPE_MULTIPOLES>  (1) 
292.93
8.67
3.34
1.07
1.36
1.3
-0.11
-8.45
-0.34
-2.35
0.17
0.38
0.24
-0.11

>  <PUBCHEM_SHAPE_SELFOVERLAP>  (1) 
530.936

>  <PUBCHEM_SHAPE_VOLUME>  (1) 
190.4

>  <PUBCHEM_COORDINATE_TYPE>  (1) 
2
5
10

$$$$
