8236
     RDKit          3D

 11 11  0  0  0  0  0  0  0  0999 V2000
   -1.0041    2.6907    0.0006 Cl  0  0  0  0  0  0  0  0  0  0  0  0
    2.4922   -1.3775    0.0005 O   0  0  0  0  0  0  0  0  0  0  0  0
    1.1876    0.5832   -0.0004 N   0  0  0  0  0  0  0  0  0  0  0  0
    3.4941    0.6761    0.0002 N   0  0  0  0  0  0  0  0  0  0  0  0
   -0.1264    0.1059   -0.0010 C   0  0  0  0  0  0  0  0  0  0  0  0
   -1.2166    0.9762   -0.0006 C   0  0  0  0  0  0  0  0  0  0  0  0
   -0.3351   -1.2733   -0.0006 C   0  0  0  0  0  0  0  0  0  0  0  0
   -2.5153    0.4671    0.0002 C   0  0  0  0  0  0  0  0  0  0  0  0
   -1.6339   -1.7822    0.0002 C   0  0  0  0  0  0  0  0  0  0  0  0
   -2.7240   -0.9120    0.0006 C   0  0  0  0  0  0  0  0  0  0  0  0
    2.3813   -0.1542    0.0002 C   0  0  0  0  0  0  0  0  0  0  0  0
  1  6  1  0
  2 11  2  0
  3  5  1  0
  3 11  1  0
  4 11  1  0
  5  6  2  0
  5  7  1  0
  6  8  1  0
  7  9  2  0
  8 10  2  0
  9 10  1  0
M  END
>  <PUBCHEM_COMPOUND_CID>  (1) 
8236

>  <PUBCHEM_CONFORMER_RMSD>  (1) 
0.4

>  <PUBCHEM_CONFORMER_DIVERSEORDER>  (1) 
1
10
15
14
7
16
3
17
13
8
12
11
6
2
5
9
4

>  <PUBCHEM_MMFF94_PARTIAL_CHARGES>  (1) 
18
1 -0.18
10 -0.15
11 0.69
12 0.15
13 0.37
14 0.15
15 0.15
16 0.15
17 0.37
18 0.37
2 -0.57
3 -0.55
4 -0.8
5 0.12
6 0.18
7 -0.15
8 -0.15
9 -0.15

>  <PUBCHEM_EFFECTIVE_ROTOR_COUNT>  (1) 
2

>  <PUBCHEM_PHARMACOPHORE_FEATURES>  (1) 
4
1 2 acceptor
1 3 donor
1 4 donor
6 5 6 7 8 9 10 rings

>  <PUBCHEM_HEAVY_ATOM_COUNT>  (1) 
11

>  <PUBCHEM_ATOM_DEF_STEREO_COUNT>  (1) 
0

>  <PUBCHEM_ATOM_UDEF_STEREO_COUNT>  (1) 
0

>  <PUBCHEM_BOND_DEF_STEREO_COUNT>  (1) 
0

>  <PUBCHEM_BOND_UDEF_STEREO_COUNT>  (1) 
0

>  <PUBCHEM_ISOTOPIC_ATOM_COUNT>  (1) 
0

>  <PUBCHEM_COMPONENT_COUNT>  (1) 
1

>  <PUBCHEM_CACTVS_TAUTO_COUNT>  (1) 
3

>  <PUBCHEM_CONFORMER_ID>  (1) 
0000202C00000001

>  <PUBCHEM_MMFF94_ENERGY>  (1) 
30.3282

>  <PUBCHEM_FEATURE_SELFOVERLAP>  (1) 
20.346

>  <PUBCHEM_SHAPE_FINGERPRINT>  (1) 
12716758 59 18268708307756133936
12897270 3 18411138073587743030
12932764 1 17417801855647575646
13024252 1 17603585244476500427
13380535 76 17906166253236584205
14325111 11 18410855430089770976
16945 1 18338517443528327207
193761 8 17762338011983718343
19973954 147 18339362959564768740
20201158 50 18412260674806942358
20711985 365 18337952264602806910
20871998 184 18272937154210272079
21040471 1 18050285868980493605
23402539 116 18272359872288275879
23552423 10 18188772876045499766
2748010 2 18267860773433300797
369184 2 18341894086644734739
5084963 1 18129377116189539169
7364860 26 17764871685937281377

>  <PUBCHEM_SHAPE_MULTIPOLES>  (1) 
212.41
4.39
2.21
0.6
3.37
1.08
0
-0.55
0
-0.99
0
-0.06
0.01
0

>  <PUBCHEM_SHAPE_SELFOVERLAP>  (1) 
431.913

>  <PUBCHEM_SHAPE_VOLUME>  (1) 
123.4

>  <PUBCHEM_COORDINATE_TYPE>  (1) 
2
5
10

$$$$
