8238
     RDKit          3D

 32 33  0  0  0  0  0  0  0  0999 V2000
    0.5410   -1.5527   -3.2496 O   0  0  0  0  0  0  0  0  0  0  0  0
    3.9906    0.9513   -0.9188 O   0  0  0  0  0  0  0  0  0  0  0  0
    0.5700   -1.3403    1.4761 O   0  0  0  0  0  0  0  0  0  0  0  0
   -2.2620   -3.3336    1.2885 O   0  0  0  0  0  0  0  0  0  0  0  0
    2.5896    1.3927    2.1082 O   0  0  0  0  0  0  0  0  0  0  0  0
   -1.2708    0.4456   -1.4760 O   0  0  0  0  0  0  0  0  0  0  0  0
   -4.8331    0.6424    1.7221 O   0  0  0  0  0  0  0  0  0  0  0  0
   -4.1485    2.1742   -1.2124 O   0  0  0  0  0  0  0  0  0  0  0  0
    2.4029   -0.2574   -2.2756 C   0  0  0  0  0  0  0  0  0  0  0  0
    1.1483   -1.0870   -2.0915 C   0  0  0  0  0  0  0  0  0  0  0  0
    0.6153   -1.3849   -0.8922 C   0  0  0  0  0  0  0  0  0  0  0  0
    2.9852    0.2355   -0.9389 C   0  0  0  0  0  0  0  0  0  0  0  0
    2.3460   -0.1506    0.3577 C   0  0  0  0  0  0  0  0  0  0  0  0
    2.0951    0.9971   -3.1152 C   0  0  0  0  0  0  0  0  0  0  0  0
    3.5010   -1.0962   -2.9554 C   0  0  0  0  0  0  0  0  0  0  0  0
   -0.6402   -2.2145   -0.7587 C   0  0  0  0  0  0  0  0  0  0  0  0
    1.2376   -0.9154    0.3421 C   0  0  0  0  0  0  0  0  0  0  0  0
   -1.7510   -1.4503   -0.1053 C   0  0  0  0  0  0  0  0  0  0  0  0
    2.9450    0.3208    1.6212 C   0  0  0  0  0  0  0  0  0  0  0  0
    3.9903   -0.5806    2.2529 C   0  0  0  0  0  0  0  0  0  0  0  0
   -2.0198   -0.1406   -0.4971 C   0  0  0  0  0  0  0  0  0  0  0  0
   -2.5122   -2.0536    0.8938 C   0  0  0  0  0  0  0  0  0  0  0  0
   -3.0542    0.5691    0.1127 C   0  0  0  0  0  0  0  0  0  0  0  0
    5.0139    0.2011    3.0729 C   0  0  0  0  0  0  0  0  0  0  0  0
   -3.5467   -1.3439    1.5036 C   0  0  0  0  0  0  0  0  0  0  0  0
   -3.8176   -0.0326    1.1131 C   0  0  0  0  0  0  0  0  0  0  0  0
   -3.3389    1.9404   -0.2946 C   0  0  0  0  0  0  0  0  0  0  0  0
   -2.6355    3.1103    0.4138 C   0  0  0  0  0  0  0  0  0  0  0  0
    5.7382    1.2329    2.2237 C   0  0  0  0  0  0  0  0  0  0  0  0
   -1.8136    3.9850   -0.5330 C   0  0  0  0  0  0  0  0  0  0  0  0
   -2.9548   -4.3714    0.5982 C   0  0  0  0  0  0  0  0  0  0  0  0
   -1.1111    5.1072    0.2136 C   0  0  0  0  0  0  0  0  0  0  0  0
  1 10  1  0
  2 12  2  0
  3 17  1  0
  4 22  1  0
  4 31  1  0
  5 19  2  0
  6 21  1  0
  7 26  1  0
  8 27  2  0
  9 10  1  0
  9 12  1  0
  9 14  1  0
  9 15  1  0
 10 11  2  0
 11 16  1  0
 11 17  1  0
 12 13  1  0
 13 17  2  0
 13 19  1  0
 16 18  1  0
 18 21  2  0
 18 22  1  0
 19 20  1  0
 20 24  1  0
 21 23  1  0
 22 25  2  0
 23 26  2  0
 23 27  1  0
 24 29  1  0
 25 26  1  0
 27 28  1  0
 28 30  1  0
 30 32  1  0
M  END
>  <PUBCHEM_COMPOUND_CID>  (1) 
8238

>  <PUBCHEM_CONFORMER_RMSD>  (1) 
1

>  <PUBCHEM_CONFORMER_DIVERSEORDER>  (1) 
8
55
108
150
84
43
157
147
89
64
91
131
87
54
126
42
79
119
151
132
128
160
52
106
50
31
100
26
61
1
58
65
163
129
62
17
73
118
124
63
136
115
45
37
76
47
101
117
107
133
29
23
53
38
146
121
149
143
75
35
98
80
138
111
19
67
85
9
144
116
33
145
88
72
159
81
96
112
28
93
60
154
153
78
48
30
125
110
103
104
83
134
152
127
77
27
97
130
68
156
114
140
135
99
57
105
120
34
162
94
25
51
5
32
123
113
74
40
18
122
44
95
70
109
16
39
141
69
3
137
56
148
158
142
11
161
66
24
49
90
13
139
71
155
14
2
46
92
86
59
36
15
6
102
10
82
21
12
20
4
7
22
41

>  <PUBCHEM_MMFF94_PARTIAL_CHARGES>  (1) 
31
1 -0.53
10 -0.06
11 -0.14
12 0.49
13 0.03
16 0.28
17 0.08
18 -0.14
19 0.49
2 -0.57
20 0.06
21 0.08
22 0.08
23 0.09
25 -0.15
26 0.08
27 0.42
28 0.06
3 -0.53
31 0.28
4 -0.36
43 0.45
46 0.45
47 0.15
5 -0.57
55 0.45
56 0.45
6 -0.53
7 -0.53
8 -0.57
9 0.2

>  <PUBCHEM_EFFECTIVE_ROTOR_COUNT>  (1) 
9.2

>  <PUBCHEM_PHARMACOPHORE_FEATURES>  (1) 
14
1 1 donor
1 13 anion
1 2 acceptor
1 29 hydrophobe
1 3 donor
1 32 hydrophobe
1 4 acceptor
1 5 acceptor
1 6 donor
1 7 donor
1 8 acceptor
3 9 14 15 hydrophobe
6 18 21 22 23 25 26 rings
6 9 10 11 12 13 17 rings

>  <PUBCHEM_HEAVY_ATOM_COUNT>  (1) 
32

>  <PUBCHEM_ATOM_DEF_STEREO_COUNT>  (1) 
0

>  <PUBCHEM_ATOM_UDEF_STEREO_COUNT>  (1) 
0

>  <PUBCHEM_BOND_DEF_STEREO_COUNT>  (1) 
0

>  <PUBCHEM_BOND_UDEF_STEREO_COUNT>  (1) 
0

>  <PUBCHEM_ISOTOPIC_ATOM_COUNT>  (1) 
0

>  <PUBCHEM_COMPONENT_COUNT>  (1) 
1

>  <PUBCHEM_CACTVS_TAUTO_COUNT>  (1) 
418

>  <PUBCHEM_CONFORMER_ID>  (1) 
0000202E00000008

>  <PUBCHEM_MMFF94_ENERGY>  (1) 
96.8394

>  <PUBCHEM_FEATURE_SELFOVERLAP>  (1) 
71.047

>  <PUBCHEM_SHAPE_FINGERPRINT>  (1) 
10165383 225 17909309877313547435
10369192 42 16841924007926900776
105312 117 16629668700070149688
10764073 3 17185290069058432546
11049842 53 17901681375213635406
11578080 2 17773618146238275966
11582403 64 17628881639529651826
11640471 11 17241065244102085775
11725454 13 17702075046385321242
11763715 3 17972309878786781282
12128747 34 18268979896383378546
12633257 1 18335984259127320041
12788726 201 17968957386724724571
13009979 54 17749386018185059690
13134695 92 16772408209941963390
133893 2 16056600911416291838
13583140 156 18129080381716863354
13726171 33 18193024631877073156
13782708 43 17771663180453091079
13965767 371 17103675536593758969
14114207 22 16897607769172196397
14856354 85 18263352754891459146
15297060 5 17834706823452268349
15324884 4 17916884507021468543
15513586 35 17837750580923233736
17974551 9 17976794537913890322
19315092 285 17097207474627527483
20603629 256 15430046465058887054
21033648 29 18340210683267453377
21591340 35 16973925416464189976
22149856 69 17974021544874590921
23536364 44 17051652195696721958
23559900 14 18269578094442405494
238 59 16845283887268701237
513202 73 15652381765407987810
550186 7 18342447141610892704
57527573 199 17479154385619313448
6287921 2 17411921839102691941
7808743 9 18265072338756847773
9862522 239 17630864158232187648

>  <PUBCHEM_SHAPE_MULTIPOLES>  (1) 
611.59
9.17
4.39
3.18
5.1
3.34
-1.16
2.18
6.27
-6.24
0.41
4.96
-0.56
2.08

>  <PUBCHEM_SHAPE_SELFOVERLAP>  (1) 
1292.979

>  <PUBCHEM_SHAPE_VOLUME>  (1) 
341.5

>  <PUBCHEM_COORDINATE_TYPE>  (1) 
2
5
10

$$$$
