8245
     RDKit          3D

 36 40  0  0  0  0  0  0  0  0999 V2000
    3.2952    1.4017    1.1999 O   0  0  0  0  0  0  0  0  0  0  0  0
   -3.2929   -1.4157    1.1945 O   0  0  0  0  0  0  0  0  0  0  0  0
   11.3604   -0.3560   -0.5862 N   0  0  0  0  0  0  0  0  0  0  0  0
  -11.3640    0.3842   -0.5831 N   0  0  0  0  0  0  0  0  0  0  0  0
    9.1522   -1.0510   -0.3643 N   0  0  0  0  0  0  0  0  0  0  0  0
   -9.1613    1.0444   -0.3592 N   0  0  0  0  0  0  0  0  0  0  0  0
    9.7648    1.2561   -0.5107 N   0  0  0  0  0  0  0  0  0  0  0  0
   -9.7834   -1.2428   -0.5177 N   0  0  0  0  0  0  0  0  0  0  0  0
    3.6022   -0.6583    0.1089 N   0  0  0  0  0  0  0  0  0  0  0  0
   -3.5790    0.6483    0.1159 N   0  0  0  0  0  0  0  0  0  0  0  0
   12.1656    0.8214   -0.7015 C   0  0  0  0  0  0  0  0  0  0  0  0
  -12.1802   -0.7850   -0.7054 C   0  0  0  0  0  0  0  0  0  0  0  0
   11.0958    1.9199   -0.6551 C   0  0  0  0  0  0  0  0  0  0  0  0
  -11.1206   -1.8935   -0.6659 C   0  0  0  0  0  0  0  0  0  0  0  0
   10.0422   -0.0256   -0.4840 C   0  0  0  0  0  0  0  0  0  0  0  0
  -10.0490    0.0412   -0.4832 C   0  0  0  0  0  0  0  0  0  0  0  0
    7.7617   -0.9525   -0.2451 C   0  0  0  0  0  0  0  0  0  0  0  0
   -7.7597    0.9448   -0.2392 C   0  0  0  0  0  0  0  0  0  0  0  0
    4.9889   -0.7565   -0.0088 C   0  0  0  0  0  0  0  0  0  0  0  0
   -4.9870    0.7483   -0.0034 C   0  0  0  0  0  0  0  0  0  0  0  0
    7.1909    0.1641    0.3658 C   0  0  0  0  0  0  0  0  0  0  0  0
   -7.1888   -0.1748    0.3660 C   0  0  0  0  0  0  0  0  0  0  0  0
    6.9459   -1.9712   -0.7378 C   0  0  0  0  0  0  0  0  0  0  0  0
   -6.9442    1.9662   -0.7265 C   0  0  0  0  0  0  0  0  0  0  0  0
    5.8046    0.2622    0.4839 C   0  0  0  0  0  0  0  0  0  0  0  0
   -5.8025   -0.2731    0.4838 C   0  0  0  0  0  0  0  0  0  0  0  0
    5.5596   -1.8732   -0.6197 C   0  0  0  0  0  0  0  0  0  0  0  0
   -5.5578    1.8680   -0.6085 C   0  0  0  0  0  0  0  0  0  0  0  0
    1.3834    0.1801    0.6857 C   0  0  0  0  0  0  0  0  0  0  0  0
   -1.3813   -0.1916    0.6860 C   0  0  0  0  0  0  0  0  0  0  0  0
    2.8567    0.3782    0.6861 C   0  0  0  0  0  0  0  0  0  0  0  0
   -2.8224   -0.3855    0.6856 C   0  0  0  0  0  0  0  0  0  0  0  0
    0.5312    1.2845    0.6888 C   0  0  0  0  0  0  0  0  0  0  0  0
   -0.8511    1.0986    0.6889 C   0  0  0  0  0  0  0  0  0  0  0  0
    0.8532   -1.1101    0.6827 C   0  0  0  0  0  0  0  0  0  0  0  0
   -0.5291   -1.2959    0.6829 C   0  0  0  0  0  0  0  0  0  0  0  0
  1 31  2  0
  2 32  2  0
  3 11  1  0
  3 15  1  0
  4 12  1  0
  4 16  1  0
  5 15  1  0
  5 17  1  0
  6 16  1  0
  6 18  1  0
  7 13  1  0
  7 15  2  0
  8 14  1  0
  8 16  2  0
  9 19  1  0
  9 31  1  0
 10 20  1  0
 10 32  1  0
 11 13  1  0
 12 14  1  0
 17 21  2  0
 17 23  1  0
 18 22  2  0
 18 24  1  0
 19 25  2  0
 19 27  1  0
 20 26  2  0
 20 28  1  0
 21 25  1  0
 22 26  1  0
 23 27  2  0
 24 28  2  0
 29 31  1  0
 29 33  2  0
 29 35  1  0
 30 32  1  0
 30 34  2  0
 30 36  1  0
 33 34  1  0
 35 36  2  0
M  END
>  <PUBCHEM_COMPOUND_CID>  (1) 
8245

>  <PUBCHEM_CONFORMER_RMSD>  (1) 
1.2

>  <PUBCHEM_CONFORMER_DIVERSEORDER>  (1) 
2
1
4
6
5
3
7

>  <PUBCHEM_MMFF94_PARTIAL_CHARGES>  (1) 
54
1 -0.57
10 -0.55
11 0.37
12 0.37
13 0.25
14 0.25
15 0.55
16 0.55
17 0.1
18 0.1
19 0.12
2 -0.57
20 0.12
21 -0.15
22 -0.15
23 -0.15
24 -0.15
25 -0.15
26 -0.15
27 -0.15
28 -0.15
29 0.09
3 -0.82
30 0.09
31 0.54
32 0.54
33 -0.15
34 -0.15
35 -0.15
36 -0.15
4 -0.82
45 0.4
46 0.4
47 0.4
48 0.4
49 0.15
5 -0.55
50 0.15
51 0.15
52 0.15
53 0.15
54 0.15
55 0.15
56 0.15
57 0.37
58 0.37
59 0.15
6 -0.55
60 0.15
61 0.15
62 0.15
7 -0.7
8 -0.7
9 -0.55

>  <PUBCHEM_EFFECTIVE_ROTOR_COUNT>  (1) 
11.2

>  <PUBCHEM_PHARMACOPHORE_FEATURES>  (1) 
15
1 1 acceptor
1 10 donor
1 2 acceptor
1 3 donor
1 4 donor
1 5 donor
1 6 donor
1 9 donor
4 3 5 7 15 cation
4 4 6 8 16 cation
5 3 7 11 13 15 rings
5 4 8 12 14 16 rings
6 17 19 21 23 25 27 rings
6 18 20 22 24 26 28 rings
6 29 30 33 34 35 36 rings

>  <PUBCHEM_HEAVY_ATOM_COUNT>  (1) 
36

>  <PUBCHEM_ATOM_DEF_STEREO_COUNT>  (1) 
0

>  <PUBCHEM_ATOM_UDEF_STEREO_COUNT>  (1) 
0

>  <PUBCHEM_BOND_DEF_STEREO_COUNT>  (1) 
0

>  <PUBCHEM_BOND_UDEF_STEREO_COUNT>  (1) 
0

>  <PUBCHEM_ISOTOPIC_ATOM_COUNT>  (1) 
0

>  <PUBCHEM_COMPONENT_COUNT>  (1) 
1

>  <PUBCHEM_CACTVS_TAUTO_COUNT>  (1) 
10

>  <PUBCHEM_CONFORMER_ID>  (1) 
0000203500000002

>  <PUBCHEM_MMFF94_ENERGY>  (1) 
144.7935

>  <PUBCHEM_FEATURE_SELFOVERLAP>  (1) 
76.219

>  <PUBCHEM_SHAPE_FINGERPRINT>  (1) 
10580692 12 18411419496708328521
11061554 47 17675920971832984517
11135609 127 18187089499034186492
11408170 108 15697726921442450446
12013929 94 18341895204064251455
12498461 61 10303801096210671101
12559415 90 16805597045308434156
12664476 115 15357695296857710271
131240 100 18410293652646610569
14251764 46 18410292505879773193
14251920 17 18409729586935699972
14344974 52 18333450966882819172
15061470 23 14129053708655609647
15219723 13 10951779560203290596
15247644 1 15698000738418567652
15343295 20 9439400228931625707
15510794 2 18343019995764056307
155225 1 17168145637517294076
15840311 113 18261109716399997237
15890870 6 18342739607208934398
16728433 110 16702013189106643520
1818759 1 15769774649914066727
20105231 36 18201718427277748807
20501277 279 11097852990823620029
20580484 106 8214144050016277605
21362267 2 14779552343367253535
232437 2 18060418015197388215
23528521 120 18334573568967246884
335352 9 18410856563934757179
395649 100 17821731663776044203
44389302 135 9943809972268956636
4874694 18 17458067053873440410
5028188 123 18409729535660005533
54039377 194 17918270953484039981
57828716 72 18040999579717109812
6673363 416 18335419050691910189
67123 10 18410855451538227223
9663363 56 15574713599418869084

>  <PUBCHEM_SHAPE_MULTIPOLES>  (1) 
689.28
53.4
1.8
0.95
0.65
0
-0.06
0.29
21.92
-0.07
0.31
0
0
0.17

>  <PUBCHEM_SHAPE_SELFOVERLAP>  (1) 
1507.581

>  <PUBCHEM_SHAPE_VOLUME>  (1) 
371.9

>  <PUBCHEM_COORDINATE_TYPE>  (1) 
2
5
10

$$$$
