8251
     RDKit          3D

 21 22  0  0  0  0  0  0  0  0999 V2000
   -0.0017   -1.2803   -0.0413 O   0  0  0  0  0  0  0  0  0  0  0  0
    7.5078    2.4385    0.1937 O   0  0  0  0  0  0  0  0  0  0  0  0
   -7.5411    2.3702   -0.3873 O   0  0  0  0  0  0  0  0  0  0  0  0
    2.3887   -1.2175   -0.0928 N   0  0  0  0  0  0  0  0  0  0  0  0
   -2.3929   -1.1785    0.2047 N   0  0  0  0  0  0  0  0  0  0  0  0
    6.4059    1.6950    0.6240 N   0  0  0  0  0  0  0  0  0  0  0  0
   -6.4732    1.5445   -0.7484 N   0  0  0  0  0  0  0  0  0  0  0  0
    1.1953   -2.0517    0.0174 C   0  0  0  0  0  0  0  0  0  0  0  0
   -1.1919   -2.0367    0.1661 C   0  0  0  0  0  0  0  0  0  0  0  0
    2.8947   -0.9712   -1.3089 C   0  0  0  0  0  0  0  0  0  0  0  0
   -2.7802   -0.6906    1.3822 C   0  0  0  0  0  0  0  0  0  0  0  0
    2.9385   -0.7253    1.0258 C   0  0  0  0  0  0  0  0  0  0  0  0
   -3.0294   -0.9345   -0.9398 C   0  0  0  0  0  0  0  0  0  0  0  0
    4.6199    0.3426   -0.2989 C   0  0  0  0  0  0  0  0  0  0  0  0
   -4.6000    0.3988    0.2759 C   0  0  0  0  0  0  0  0  0  0  0  0
    4.0277   -0.1816   -1.4440 C   0  0  0  0  0  0  0  0  0  0  0  0
   -3.9053    0.1189    1.4488 C   0  0  0  0  0  0  0  0  0  0  0  0
    4.0728    0.0704    0.9514 C   0  0  0  0  0  0  0  0  0  0  0  0
   -4.1610   -0.1315   -0.9335 C   0  0  0  0  0  0  0  0  0  0  0  0
    5.8070    1.1749   -0.4092 C   0  0  0  0  0  0  0  0  0  0  0  0
   -5.7815    1.2454    0.3142 C   0  0  0  0  0  0  0  0  0  0  0  0
  1  8  1  0
  1  9  1  0
  2  6  1  0
  3  7  1  0
  4  8  1  0
  4 10  2  0
  4 12  1  0
  5  9  1  0
  5 11  2  0
  5 13  1  0
  6 20  2  0
  7 21  2  0
 10 16  1  0
 11 17  1  0
 12 18  2  0
 13 19  2  0
 14 16  2  0
 14 18  1  0
 14 20  1  0
 15 17  2  0
 15 19  1  0
 15 21  1  0
M  CHG  2   4   1   5   1
M  END
>  <PUBCHEM_COMPOUND_CID>  (1) 
8251

>  <PUBCHEM_CONFORMER_RMSD>  (1) 
0.8

>  <PUBCHEM_CONFORMER_DIVERSEORDER>  (1) 
1
6
5
4
10
9
3
2
8
7

>  <PUBCHEM_MMFF94_PARTIAL_CHARGES>  (1) 
33
1 -0.56
10 0.21
11 0.21
12 0.21
13 0.21
14 0.09
15 0.09
16 -0.15
17 -0.15
18 -0.15
19 -0.15
2 -0.34
20 0.3
21 0.3
26 0.15
27 0.15
28 0.15
29 0.15
3 -0.34
30 0.15
31 0.15
32 0.15
33 0.15
34 0.06
35 0.06
36 0.4
37 0.4
4 -0.21
5 -0.21
6 -0.51
7 -0.51
8 0.77
9 0.77

>  <PUBCHEM_EFFECTIVE_ROTOR_COUNT>  (1) 
6

>  <PUBCHEM_PHARMACOPHORE_FEATURES>  (1) 
7
1 1 acceptor
1 2 anion
1 3 anion
1 6 acceptor
1 7 acceptor
6 4 10 12 14 16 18 rings
6 5 11 13 15 17 19 rings

>  <PUBCHEM_HEAVY_ATOM_COUNT>  (1) 
21

>  <PUBCHEM_ATOM_DEF_STEREO_COUNT>  (1) 
0

>  <PUBCHEM_ATOM_UDEF_STEREO_COUNT>  (1) 
0

>  <PUBCHEM_BOND_DEF_STEREO_COUNT>  (1) 
0

>  <PUBCHEM_BOND_UDEF_STEREO_COUNT>  (1) 
2

>  <PUBCHEM_ISOTOPIC_ATOM_COUNT>  (1) 
0

>  <PUBCHEM_COMPONENT_COUNT>  (1) 
1

>  <PUBCHEM_CACTVS_TAUTO_COUNT>  (1) 
3

>  <PUBCHEM_CONFORMER_ID>  (1) 
0000203B00000001

>  <PUBCHEM_MMFF94_ENERGY>  (1) 
57.9998

>  <PUBCHEM_FEATURE_SELFOVERLAP>  (1) 
35.522

>  <PUBCHEM_SHAPE_FINGERPRINT>  (1) 
10498660 4 18202005425466331738
10693767 8 13469867874974865676
10740516 88 11742970613075479997
12403259 118 17677343830057678431
12596602 18 17749111084506396305
12778500 126 18186512195325994000
13668630 136 11095883765440484813
13685833 64 8934998170314829926
14123256 34 10303810990770081893
1420 369 8934998157387970271
14341114 176 15719390612293698126
14428016 167 8862935057709092305
14528608 73 17774999064418548599
14849402 71 14780125211354494870
14931854 50 17560806510977836272
15183329 4 16056885710285953299
15188451 53 12685095921135258387
15238133 3 17676216801096234894
15575132 122 17845095070031706625
1768 4 18341341041740765865
17780758 139 13190325885874144230
17870717 6 13686301266596854735
193927 3 10087639303641194207
19427546 20 18129655422346153231
19784866 240 10735869582953546771
20281389 69 18335985341622705898
20526848 3 18410012139004923740
21033648 29 18113345205901713943
21095086 4 11671197775147392725
21298829 104 18340489980743659225
21307412 95 12895057532526959709
21637258 2 8574414415156056809
22765269 38 18411982459588914659
23402655 69 17060066956021968778
23559900 14 15482375539076781051
270888 7 18410009939986735050
3004659 81 12679459776796170554
3472631 163 18342458153268534967
465052 167 8934991590303665363
5104073 3 15430616067705802676
5283384 27 18187075136346835989
543368 44 18272652351076693509
5718773 13 9367349232085082316
5924683 9 16081944766353683203
59682541 52 17131277852838741470
6327066 14 18413106173389169335
7970288 3 9511462220984747316
960060 61 15410895136940102350

>  <PUBCHEM_SHAPE_MULTIPOLES>  (1) 
394.64
19.58
2.15
1.26
0.37
0.56
-0.03
19.23
1.16
-0.22
0.05
0.08
-0.12
0.94

>  <PUBCHEM_SHAPE_SELFOVERLAP>  (1) 
827.436

>  <PUBCHEM_SHAPE_VOLUME>  (1) 
223.2

>  <PUBCHEM_COORDINATE_TYPE>  (1) 
2
5
10

$$$$
