8256
     RDKit          3D

  6  5  0  0  0  0  0  0  0  0999 V2000
   -0.1003    0.0274    1.9461 Br  0  0  0  0  0  0  0  0  0  0  0  0
    1.3247   -1.6231   -0.4292 Br  0  0  0  0  0  0  0  0  0  0  0  0
    1.3276    1.6090   -0.4718 Br  0  0  0  0  0  0  0  0  0  0  0  0
   -2.0352   -0.0036   -0.3357 O   0  0  0  0  0  0  0  0  0  0  0  0
    0.3703    0.0007    0.0615 C   0  0  0  0  0  0  0  0  0  0  0  0
   -0.8872   -0.0103   -0.7710 C   0  0  0  0  0  0  0  0  0  0  0  0
  1  5  1  0
  2  5  1  0
  3  5  1  0
  4  6  2  0
  5  6  1  0
M  END
>  <PUBCHEM_COMPOUND_CID>  (1) 
8256

>  <PUBCHEM_CONFORMER_RMSD>  (1) 
0.4

>  <PUBCHEM_CONFORMER_DIVERSEORDER>  (1) 
1

>  <PUBCHEM_MMFF94_PARTIAL_CHARGES>  (1) 
7
1 -0.23
2 -0.23
3 -0.23
4 -0.57
5 0.75
6 0.45
7 0.06

>  <PUBCHEM_EFFECTIVE_ROTOR_COUNT>  (1) 
1

>  <PUBCHEM_PHARMACOPHORE_FEATURES>  (1) 
5
1 1 hydrophobe
1 2 hydrophobe
1 3 hydrophobe
1 4 acceptor
4 1 2 3 5 hydrophobe

>  <PUBCHEM_HEAVY_ATOM_COUNT>  (1) 
6

>  <PUBCHEM_ATOM_DEF_STEREO_COUNT>  (1) 
0

>  <PUBCHEM_ATOM_UDEF_STEREO_COUNT>  (1) 
0

>  <PUBCHEM_BOND_DEF_STEREO_COUNT>  (1) 
0

>  <PUBCHEM_BOND_UDEF_STEREO_COUNT>  (1) 
0

>  <PUBCHEM_ISOTOPIC_ATOM_COUNT>  (1) 
0

>  <PUBCHEM_COMPONENT_COUNT>  (1) 
1

>  <PUBCHEM_CACTVS_TAUTO_COUNT>  (1) 
1

>  <PUBCHEM_CONFORMER_ID>  (1) 
0000204000000001

>  <PUBCHEM_MMFF94_ENERGY>  (1) 
7.0246

>  <PUBCHEM_FEATURE_SELFOVERLAP>  (1) 
26.301

>  <PUBCHEM_SHAPE_FINGERPRINT>  (1) 
137420 1 13086120049356053988
24536 1 18194371512303296741
29004967 10 18337391513519952654
5943 1 10568065875806522600

>  <PUBCHEM_SHAPE_MULTIPOLES>  (1) 
135.43
1.94
1.69
1.56
0.19
0
0.82
0
-0.39
-1.32
-0.13
0.77
-0.01
-0.01

>  <PUBCHEM_SHAPE_SELFOVERLAP>  (1) 
209.519

>  <PUBCHEM_SHAPE_VOLUME>  (1) 
99.9

>  <PUBCHEM_COORDINATE_TYPE>  (1) 
2
5
10

$$$$
