8261
     RDKit          3D

  7  6  0  0  0  0  0  0  0  0999 V2000
    1.2017   -1.2953   -0.0093 O   0  0  0  0  0  0  0  0  0  0  0  0
   -1.4553   -1.2173   -0.0112 O   0  0  0  0  0  0  0  0  0  0  0  0
    0.6345    0.0074   -0.0008 C   0  0  0  0  0  0  0  0  0  0  0  0
    1.1201    0.7513   -1.2453 C   0  0  0  0  0  0  0  0  0  0  0  0
    1.1020    0.7239    1.2627 C   0  0  0  0  0  0  0  0  0  0  0  0
   -0.8937   -0.1204    0.0068 C   0  0  0  0  0  0  0  0  0  0  0  0
   -1.7092    1.1505   -0.0029 C   0  0  0  0  0  0  0  0  0  0  0  0
  1  3  1  0
  2  6  2  0
  3  4  1  0
  3  5  1  0
  3  6  1  0
  6  7  1  0
M  END
>  <PUBCHEM_COMPOUND_CID>  (1) 
8261

>  <PUBCHEM_CONFORMER_RMSD>  (1) 
0.4

>  <PUBCHEM_CONFORMER_DIVERSEORDER>  (1) 
1
5
4
3
2

>  <PUBCHEM_MMFF94_PARTIAL_CHARGES>  (1) 
6
1 -0.68
17 0.4
2 -0.57
3 0.34
6 0.45
7 0.06

>  <PUBCHEM_EFFECTIVE_ROTOR_COUNT>  (1) 
1

>  <PUBCHEM_PHARMACOPHORE_FEATURES>  (1) 
4
1 1 acceptor
1 1 donor
1 2 acceptor
3 3 4 5 hydrophobe

>  <PUBCHEM_HEAVY_ATOM_COUNT>  (1) 
7

>  <PUBCHEM_ATOM_DEF_STEREO_COUNT>  (1) 
0

>  <PUBCHEM_ATOM_UDEF_STEREO_COUNT>  (1) 
0

>  <PUBCHEM_BOND_DEF_STEREO_COUNT>  (1) 
0

>  <PUBCHEM_BOND_UDEF_STEREO_COUNT>  (1) 
0

>  <PUBCHEM_ISOTOPIC_ATOM_COUNT>  (1) 
0

>  <PUBCHEM_COMPONENT_COUNT>  (1) 
1

>  <PUBCHEM_CACTVS_TAUTO_COUNT>  (1) 
2

>  <PUBCHEM_CONFORMER_ID>  (1) 
0000204500000001

>  <PUBCHEM_MMFF94_ENERGY>  (1) 
11.6422

>  <PUBCHEM_FEATURE_SELFOVERLAP>  (1) 
20.306

>  <PUBCHEM_SHAPE_FINGERPRINT>  (1) 
20096714 4 17895772728358500421
21040471 1 18338797810545997729
24536 1 18113894987622198487
29004967 10 17243316927893605674
5084963 1 18190745224265816321
5943 1 12301141379553159936

>  <PUBCHEM_SHAPE_MULTIPOLES>  (1) 
132.32
2.01
1.31
1.08
0.62
0.22
0.02
-0.17
-0.01
0.17
-0.02
-0.54
-0.35
-0.01

>  <PUBCHEM_SHAPE_SELFOVERLAP>  (1) 
244.001

>  <PUBCHEM_SHAPE_VOLUME>  (1) 
85

>  <PUBCHEM_COORDINATE_TYPE>  (1) 
2
5
10

$$$$
