8284
     RDKit          3D

  9  8  0  0  0  0  0  0  0  0999 V2000
   -1.6047    1.8532    0.2136 O   0  0  0  0  0  0  0  0  0  0  0  0
    1.7855    1.6706   -0.2160 O   0  0  0  0  0  0  0  0  0  0  0  0
   -0.0040    0.0018    0.0000 C   0  0  0  0  0  0  0  0  0  0  0  0
   -0.9691   -0.8238   -0.9025 C   0  0  0  0  0  0  0  0  0  0  0  0
    0.8863   -0.9028    0.9035 C   0  0  0  0  0  0  0  0  0  0  0  0
   -0.8013    0.9388    0.9487 C   0  0  0  0  0  0  0  0  0  0  0  0
    0.8712    0.8656   -0.9495 C   0  0  0  0  0  0  0  0  0  0  0  0
   -1.9595   -1.7207   -0.1695 C   0  0  0  0  0  0  0  0  0  0  0  0
    1.7956   -1.8827    0.1717 C   0  0  0  0  0  0  0  0  0  0  0  0
  1  6  1  0
  2  7  1  0
  3  4  1  0
  3  5  1  0
  3  6  1  0
  3  7  1  0
  4  8  1  0
  5  9  1  0
M  END
>  <PUBCHEM_COMPOUND_CID>  (1) 
8284

>  <PUBCHEM_CONFORMER_RMSD>  (1) 
0.6

>  <PUBCHEM_CONFORMER_DIVERSEORDER>  (1) 
1
26
5
16
10
13
28
3
6
14
19
20
18
27
8
24
17
11
15
9
25
23
7
22
4
12
21
2

>  <PUBCHEM_MMFF94_PARTIAL_CHARGES>  (1) 
6
1 -0.68
2 -0.68
24 0.4
25 0.4
6 0.28
7 0.28

>  <PUBCHEM_EFFECTIVE_ROTOR_COUNT>  (1) 
4

>  <PUBCHEM_PHARMACOPHORE_FEATURES>  (1) 
6
1 1 acceptor
1 1 donor
1 2 acceptor
1 2 donor
1 8 hydrophobe
1 9 hydrophobe

>  <PUBCHEM_HEAVY_ATOM_COUNT>  (1) 
9

>  <PUBCHEM_ATOM_DEF_STEREO_COUNT>  (1) 
0

>  <PUBCHEM_ATOM_UDEF_STEREO_COUNT>  (1) 
0

>  <PUBCHEM_BOND_DEF_STEREO_COUNT>  (1) 
0

>  <PUBCHEM_BOND_UDEF_STEREO_COUNT>  (1) 
0

>  <PUBCHEM_ISOTOPIC_ATOM_COUNT>  (1) 
0

>  <PUBCHEM_COMPONENT_COUNT>  (1) 
1

>  <PUBCHEM_CACTVS_TAUTO_COUNT>  (1) 
1

>  <PUBCHEM_CONFORMER_ID>  (1) 
0000205C00000001

>  <PUBCHEM_MMFF94_ENERGY>  (1) 
19.5142

>  <PUBCHEM_FEATURE_SELFOVERLAP>  (1) 
30.446

>  <PUBCHEM_SHAPE_FINGERPRINT>  (1) 
10219947 1 17617947924209733497
12423570 1 15014305012437799027
137420 1 11354397395962482624
14993402 34 17977947882276423935
16714656 1 17617658761246844050
18185500 45 18197211658001352543
21040471 1 17767964238315041059
23552423 10 18408887368769347678
4369600 1 17765430233285220271
5943 1 13058816315089767463
68250623 7 18338536169438148647

>  <PUBCHEM_SHAPE_MULTIPOLES>  (1) 
173.48
2.29
2.25
1.02
0.02
0.04
0
-0.54
0.02
-0.01
-0.02
0
0.06
-0.57

>  <PUBCHEM_SHAPE_SELFOVERLAP>  (1) 
314.43

>  <PUBCHEM_SHAPE_VOLUME>  (1) 
111.9

>  <PUBCHEM_COORDINATE_TYPE>  (1) 
2
5
10

$$$$
