8285
     RDKit          3D

  9  8  0  0  0  0  0  0  0  0999 V2000
    1.7201    1.7877   -0.1067 O   0  0  0  0  0  0  0  0  0  0  0  0
   -1.6657   -0.1270   -1.7769 O   0  0  0  0  0  0  0  0  0  0  0  0
   -1.7579    0.1416    1.7042 O   0  0  0  0  0  0  0  0  0  0  0  0
    1.6809   -1.7915    0.1506 O   0  0  0  0  0  0  0  0  0  0  0  0
    0.0050    0.0043    0.0126 C   0  0  0  0  0  0  0  0  0  0  0  0
    0.9171    0.8965   -0.8695 C   0  0  0  0  0  0  0  0  0  0  0  0
   -0.8516   -0.9024   -0.9063 C   0  0  0  0  0  0  0  0  0  0  0  0
   -0.9004    0.9180    0.8761 C   0  0  0  0  0  0  0  0  0  0  0  0
    0.8525   -0.9272    0.9160 C   0  0  0  0  0  0  0  0  0  0  0  0
  1  6  1  0
  2  7  1  0
  3  8  1  0
  4  9  1  0
  5  6  1  0
  5  7  1  0
  5  8  1  0
  5  9  1  0
M  END
>  <PUBCHEM_COMPOUND_CID>  (1) 
8285

>  <PUBCHEM_CONFORMER_RMSD>  (1) 
0.6

>  <PUBCHEM_CONFORMER_DIVERSEORDER>  (1) 
3
7
5
2
6
4
1

>  <PUBCHEM_MMFF94_PARTIAL_CHARGES>  (1) 
12
1 -0.68
18 0.4
19 0.4
2 -0.68
20 0.4
21 0.4
3 -0.68
4 -0.68
6 0.28
7 0.28
8 0.28
9 0.28

>  <PUBCHEM_EFFECTIVE_ROTOR_COUNT>  (1) 
4

>  <PUBCHEM_PHARMACOPHORE_FEATURES>  (1) 
8
1 1 acceptor
1 1 donor
1 2 acceptor
1 2 donor
1 3 acceptor
1 3 donor
1 4 acceptor
1 4 donor

>  <PUBCHEM_HEAVY_ATOM_COUNT>  (1) 
9

>  <PUBCHEM_ATOM_DEF_STEREO_COUNT>  (1) 
0

>  <PUBCHEM_ATOM_UDEF_STEREO_COUNT>  (1) 
0

>  <PUBCHEM_BOND_DEF_STEREO_COUNT>  (1) 
0

>  <PUBCHEM_BOND_UDEF_STEREO_COUNT>  (1) 
0

>  <PUBCHEM_ISOTOPIC_ATOM_COUNT>  (1) 
0

>  <PUBCHEM_COMPONENT_COUNT>  (1) 
1

>  <PUBCHEM_CACTVS_TAUTO_COUNT>  (1) 
1

>  <PUBCHEM_CONFORMER_ID>  (1) 
0000205D00000003

>  <PUBCHEM_MMFF94_ENERGY>  (1) 
24.6914

>  <PUBCHEM_FEATURE_SELFOVERLAP>  (1) 
40.6

>  <PUBCHEM_SHAPE_FINGERPRINT>  (1) 
12423570 1 11400084238784687152
13024252 1 16595349316650658946
137420 1 14997136949902799822
20711978 78 18261407619214463075
29004967 10 17827042200613638295
5084963 1 17692022301561396881
5943 1 12741022708382334087
68250623 7 17554375544665479127

>  <PUBCHEM_SHAPE_MULTIPOLES>  (1) 
161.74
2.03
1.58
1.53
0.02
0
-0.06
-0.05
0.04
-0.99
0.02
0.94
0.02
-0.5

>  <PUBCHEM_SHAPE_SELFOVERLAP>  (1) 
298.404

>  <PUBCHEM_SHAPE_VOLUME>  (1) 
100.1

>  <PUBCHEM_COORDINATE_TYPE>  (1) 
2
5
10

$$$$
