8287
     RDKit          3D

 22 22  0  0  0  0  0  0  0  0999 V2000
   -0.8564   -2.8432   -1.1770 Cl  0  0  0  0  0  0  0  0  0  0  0  0
   -5.8008   -1.3245    0.3098 Cl  0  0  0  0  0  0  0  0  0  0  0  0
    0.8834    0.3738   -0.0435 P   0  0  0  0  0  0  0  0  0  0  0  0
    1.0251   -1.1463    0.8346 C   0  0  0  0  0  0  0  0  0  0  0  0
    0.2757    1.6226    1.0394 C   0  0  0  0  0  0  0  0  0  0  0  0
    2.4651    0.8470   -0.6566 C   0  0  0  0  0  0  0  0  0  0  0  0
   -0.2322    0.1716   -1.3913 C   0  0  0  0  0  0  0  0  0  0  0  0
    2.0355   -1.1022    1.9734 C   0  0  0  0  0  0  0  0  0  0  0  0
    0.1963    3.0017    0.3981 C   0  0  0  0  0  0  0  0  0  0  0  0
    3.1187   -0.2078   -1.5397 C   0  0  0  0  0  0  0  0  0  0  0  0
   -1.6153   -0.2339   -0.9689 C   0  0  0  0  0  0  0  0  0  0  0  0
    2.1748   -2.4536    2.6737 C   0  0  0  0  0  0  0  0  0  0  0  0
   -0.2781    4.0696    1.3831 C   0  0  0  0  0  0  0  0  0  0  0  0
    4.5129    0.2120   -2.0043 C   0  0  0  0  0  0  0  0  0  0  0  0
   -1.9797   -1.5747   -0.8466 C   0  0  0  0  0  0  0  0  0  0  0  0
   -2.5448    0.7694   -0.6952 C   0  0  0  0  0  0  0  0  0  0  0  0
    3.1699   -2.3837    3.8217 C   0  0  0  0  0  0  0  0  0  0  0  0
   -0.3732    5.4345    0.7188 C   0  0  0  0  0  0  0  0  0  0  0  0
    5.1395   -0.8428   -2.9031 C   0  0  0  0  0  0  0  0  0  0  0  0
   -3.2739   -1.9123   -0.4505 C   0  0  0  0  0  0  0  0  0  0  0  0
   -3.8390    0.4318   -0.2991 C   0  0  0  0  0  0  0  0  0  0  0  0
   -4.2035   -0.9090   -0.1769 C   0  0  0  0  0  0  0  0  0  0  0  0
  1 15  1  0
  2 22  1  0
  3  4  1  0
  3  5  1  0
  3  6  1  0
  3  7  1  0
  4  8  1  0
  5  9  1  0
  6 10  1  0
  7 11  1  0
  8 12  1  0
  9 13  1  0
 10 14  1  0
 11 15  2  0
 11 16  1  0
 12 17  1  0
 13 18  1  0
 14 19  1  0
 15 20  1  0
 16 21  2  0
 20 22  2  0
 21 22  1  0
M  CHG  1   3   1
M  END
>  <PUBCHEM_COMPOUND_CID>  (1) 
8287

>  <PUBCHEM_CONFORMER_RMSD>  (1) 
1

>  <PUBCHEM_CONFORMER_DIVERSEORDER>  (1) 
1
27
23
8
35
16
53
54
24
46
48
57
7
58
39
36
59
20
40
12
22
45
49
33
19
51
42
43
28
30
56
6
3
29
38
47
15
31
41
11
4
13
37
25
2
9
44
55
5
17
21
10
14
50
18
34
52
26
32

>  <PUBCHEM_MMFF94_PARTIAL_CHARGES>  (1) 
12
1 -0.18
11 -0.14
15 0.18
16 -0.15
2 -0.18
20 -0.15
21 -0.15
22 0.18
43 0.15
53 0.15
54 0.15
7 0.14

>  <PUBCHEM_EFFECTIVE_ROTOR_COUNT>  (1) 
11

>  <PUBCHEM_PHARMACOPHORE_FEATURES>  (1) 
4
1 17 hydrophobe
1 18 hydrophobe
1 19 hydrophobe
6 11 15 16 20 21 22 rings

>  <PUBCHEM_HEAVY_ATOM_COUNT>  (1) 
22

>  <PUBCHEM_ATOM_DEF_STEREO_COUNT>  (1) 
0

>  <PUBCHEM_ATOM_UDEF_STEREO_COUNT>  (1) 
0

>  <PUBCHEM_BOND_DEF_STEREO_COUNT>  (1) 
0

>  <PUBCHEM_BOND_UDEF_STEREO_COUNT>  (1) 
0

>  <PUBCHEM_ISOTOPIC_ATOM_COUNT>  (1) 
0

>  <PUBCHEM_COMPONENT_COUNT>  (1) 
1

>  <PUBCHEM_CACTVS_TAUTO_COUNT>  (1) 
1

>  <PUBCHEM_CONFORMER_ID>  (1) 
0000205F00000001

>  <PUBCHEM_MMFF94_ENERGY>  (1) 
25.8064

>  <PUBCHEM_FEATURE_SELFOVERLAP>  (1) 
20.297

>  <PUBCHEM_SHAPE_FINGERPRINT>  (1) 
10366900 7 18041281084230667739
11578080 2 17608608930046795973
12058002 1 17466280405521599318
12160290 23 17699554849776298345
12293681 160 18188787170414241512
12553582 1 18342730823973725839
12788726 201 18338242539819957056
13009979 54 18044922498721400346
13140716 1 18193534711072133473
14022347 108 18343301474318088458
14028597 1 18260546710938620008
15775530 1 17182232846712124672
15842332 3 17826519851434582696
20600515 1 18059558230963098226
20602899 9 17314250993368942718
21033648 29 16988553590216983531
21285901 2 17345215336076195908
21524375 3 16901559422283481761
23419403 2 17470482940652062536
23559900 14 17916306220261903631
266924 1 18115877287181519592
6086070 43 18340192056542689637
7097593 13 18121469566365687187

>  <PUBCHEM_SHAPE_MULTIPOLES>  (1) 
460.34
8.56
4.75
2.92
3.45
8.7
-2.07
-6.03
3.94
0.33
-3.32
-5.94
-2.6
-1.92

>  <PUBCHEM_SHAPE_SELFOVERLAP>  (1) 
863.722

>  <PUBCHEM_SHAPE_VOLUME>  (1) 
284.6

>  <PUBCHEM_COORDINATE_TYPE>  (1) 
2
5
10

$$$$
