8298
     RDKit          3D

 10 10  0  0  1  0  0  0  0  0999 V2000
   -1.3652   -2.5570   -0.1681 O   0  0  0  0  0  0  0  0  0  0  0  0
    1.3280    0.1212   -0.0267 C   0  0  0  0  0  0  0  0  0  0  0  0
    0.3785    1.2969   -0.3582 C   0  0  0  0  0  0  0  0  0  0  0  0
   -1.0136    1.1640    0.2817 C   0  0  0  0  0  0  0  0  0  0  0  0
    0.6344   -1.2197   -0.3486 C   0  0  0  0  0  0  0  0  0  0  0  0
   -0.7488   -1.3564    0.2902 C   0  0  0  0  0  0  0  0  0  0  0  0
   -1.6514   -0.1817   -0.0774 C   0  0  0  0  0  0  0  0  0  0  0  0
    2.5980    0.2466   -0.8898 C   0  0  0  0  0  0  0  0  0  0  0  0
    1.7561    0.1684    1.4527 C   0  0  0  0  0  0  0  0  0  0  0  0
   -1.9161    2.3178   -0.1557 C   0  0  0  0  0  0  0  0  0  0  0  0
  1  6  1  0
  2  3  1  0
  2  5  1  0
  2  8  1  0
  2  9  1  0
  3  4  1  0
  4  7  1  0
  4 10  1  0
  5  6  1  0
  6  7  1  0
M  END
>  <PUBCHEM_COMPOUND_CID>  (1) 
8298

>  <PUBCHEM_CONFORMER_RMSD>  (1) 
0.4

>  <PUBCHEM_CONFORMER_DIVERSEORDER>  (1) 
3
6
5
11
1
2
9
8
7
4
10

>  <PUBCHEM_MMFF94_PARTIAL_CHARGES>  (1) 
3
1 -0.68
28 0.4
6 0.28

>  <PUBCHEM_EFFECTIVE_ROTOR_COUNT>  (1) 
1.2

>  <PUBCHEM_PHARMACOPHORE_FEATURES>  (1) 
4
1 1 acceptor
1 1 donor
3 2 8 9 hydrophobe
6 2 3 4 5 6 7 rings

>  <PUBCHEM_HEAVY_ATOM_COUNT>  (1) 
10

>  <PUBCHEM_ATOM_DEF_STEREO_COUNT>  (1) 
0

>  <PUBCHEM_ATOM_UDEF_STEREO_COUNT>  (1) 
2

>  <PUBCHEM_BOND_DEF_STEREO_COUNT>  (1) 
0

>  <PUBCHEM_BOND_UDEF_STEREO_COUNT>  (1) 
0

>  <PUBCHEM_ISOTOPIC_ATOM_COUNT>  (1) 
0

>  <PUBCHEM_COMPONENT_COUNT>  (1) 
1

>  <PUBCHEM_CACTVS_TAUTO_COUNT>  (1) 
1

>  <PUBCHEM_CONFORMER_ID>  (1) 
0000206A00000003

>  <PUBCHEM_MMFF94_ENERGY>  (1) 
21.2305

>  <PUBCHEM_FEATURE_SELFOVERLAP>  (1) 
20.297

>  <PUBCHEM_SHAPE_FINGERPRINT>  (1) 
1 1 17833551193559626581
12423570 1 9034768757488911394
12716758 59 18340776953129971276
14817 1 17620419892420402641
16945 1 18410853291169683816
18185500 45 17975695309368722611
20653085 51 17898888740512516228
20711985 344 18338236075825676115
21040471 1 18338795589821013432
21922407 69 16370733629407227968
21930827 45 18343582923746678032
23235685 24 18265336096925117749
23552423 10 18188779482158920782
2748010 2 18193846937708559287
5084963 1 18201442419746666665

>  <PUBCHEM_SHAPE_MULTIPOLES>  (1) 
199.93
2.84
2.28
0.95
0.29
1.26
-0.25
-1.36
0.24
-1.3
0.21
0.56
-0.16
-0.01

>  <PUBCHEM_SHAPE_SELFOVERLAP>  (1) 
388.068

>  <PUBCHEM_SHAPE_VOLUME>  (1) 
122.1

>  <PUBCHEM_COORDINATE_TYPE>  (1) 
2
5
10

$$$$
