8303
     RDKit          3D

 10  9  0  0  0  0  0  0  0  0999 V2000
   -1.0788    1.6640    0.8087 Cl  0  0  0  0  0  0  0  0  0  0  0  0
   -1.9813    0.3551   -1.6589 Cl  0  0  0  0  0  0  0  0  0  0  0  0
   -2.5460   -0.8308    0.8930 Cl  0  0  0  0  0  0  0  0  0  0  0  0
    1.1898    1.6264   -0.8655 Cl  0  0  0  0  0  0  0  0  0  0  0  0
    1.7813    0.4025    1.6914 Cl  0  0  0  0  0  0  0  0  0  0  0  0
    2.6350   -0.8530   -0.8207 Cl  0  0  0  0  0  0  0  0  0  0  0  0
   -0.0276   -1.8898   -0.0044 O   0  0  0  0  0  0  0  0  0  0  0  0
   -0.0012   -0.6495   -0.0115 C   0  0  0  0  0  0  0  0  0  0  0  0
   -1.3287    0.1161   -0.0306 C   0  0  0  0  0  0  0  0  0  0  0  0
    1.3576    0.0591   -0.0014 C   0  0  0  0  0  0  0  0  0  0  0  0
  1  9  1  0
  2  9  1  0
  3  9  1  0
  4 10  1  0
  5 10  1  0
  6 10  1  0
  7  8  2  0
  8  9  1  0
  8 10  1  0
M  END
>  <PUBCHEM_COMPOUND_CID>  (1) 
8303

>  <PUBCHEM_CONFORMER_RMSD>  (1) 
0.4

>  <PUBCHEM_CONFORMER_DIVERSEORDER>  (1) 
1
2
3

>  <PUBCHEM_MMFF94_PARTIAL_CHARGES>  (1) 
10
1 -0.29
10 0.93
2 -0.29
3 -0.29
4 -0.29
5 -0.29
6 -0.29
7 -0.57
8 0.45
9 0.93

>  <PUBCHEM_EFFECTIVE_ROTOR_COUNT>  (1) 
2

>  <PUBCHEM_PHARMACOPHORE_FEATURES>  (1) 
1
1 7 acceptor

>  <PUBCHEM_HEAVY_ATOM_COUNT>  (1) 
10

>  <PUBCHEM_ATOM_DEF_STEREO_COUNT>  (1) 
0

>  <PUBCHEM_ATOM_UDEF_STEREO_COUNT>  (1) 
0

>  <PUBCHEM_BOND_DEF_STEREO_COUNT>  (1) 
0

>  <PUBCHEM_BOND_UDEF_STEREO_COUNT>  (1) 
0

>  <PUBCHEM_ISOTOPIC_ATOM_COUNT>  (1) 
0

>  <PUBCHEM_COMPONENT_COUNT>  (1) 
1

>  <PUBCHEM_CACTVS_TAUTO_COUNT>  (1) 
1

>  <PUBCHEM_CONFORMER_ID>  (1) 
0000206F00000001

>  <PUBCHEM_MMFF94_ENERGY>  (1) 
30.8522

>  <PUBCHEM_FEATURE_SELFOVERLAP>  (1) 
5.074

>  <PUBCHEM_SHAPE_FINGERPRINT>  (1) 
12423570 1 13264907013784946170
15775835 57 17418380189862712489
16945 1 17989199326777113558
20082192 1 18263076785318691566
21040471 1 18270402818351671426
23235685 24 18263368001334204353
241688 4 18267308625264723728
24536 1 18410009931418003409
5084963 1 18342186556669099451
528862 383 17899421066964079249
528886 8 18191601747902380940

>  <PUBCHEM_SHAPE_MULTIPOLES>  (1) 
211.14
3.44
1.67
1.53
0.02
0.18
0.03
-0.62
-0.15
0.03
0
-0.04
0.3
0.32

>  <PUBCHEM_SHAPE_SELFOVERLAP>  (1) 
357.747

>  <PUBCHEM_SHAPE_VOLUME>  (1) 
142.9

>  <PUBCHEM_COORDINATE_TYPE>  (1) 
2
5
10

$$$$
