831
     RDKit          3D

 12 11  0  0  1  0  0  0  0  0999 V2000
   -0.1292   -0.0665    0.4473 O   0  0  0  0  0  0  0  0  0  0  0  0
    2.2996   -1.8315    0.5182 O   0  0  0  0  0  0  0  0  0  0  0  0
    3.1834   -0.7598   -1.2800 O   0  0  0  0  0  0  0  0  0  0  0  0
   -1.7433    1.4263   -0.5358 O   0  0  0  0  0  0  0  0  0  0  0  0
    3.1644    1.5816    0.2302 N   0  0  0  0  0  0  0  0  0  0  0  0
   -3.7753   -0.4270   -0.0138 N   0  0  0  0  0  0  0  0  0  0  0  0
   -4.8075   -0.2376   -0.2824 N   0  0  0  0  0  0  0  0  0  0  0  0
    2.2015    0.5302    0.5538 C   0  0  0  0  0  0  0  0  0  0  0  0
    0.8019    0.9610    0.1241 C   0  0  0  0  0  0  0  0  0  0  0  0
    2.6278   -0.7201   -0.1914 C   0  0  0  0  0  0  0  0  0  0  0  0
   -1.4363    0.2251    0.0835 C   0  0  0  0  0  0  0  0  0  0  0  0
   -2.3871   -0.6816    0.3464 C   0  0  0  0  0  0  0  0  0  0  0  0
  1  9  1  0
  1 11  1  0
  2 10  1  0
  3 10  2  0
  4 11  1  0
  5  8  1  0
  6  7  3  0
  6 12  1  0
  8  9  1  0
  8 10  1  0
 11 12  2  0
M  CHG  1   6   1
M  END
>  <PUBCHEM_COMPOUND_CID>  (1) 
831

>  <PUBCHEM_CONFORMER_RMSD>  (1) 
0.6

>  <PUBCHEM_CONFORMER_DIVERSEORDER>  (1) 
2
59
11
42
33
62
16
46
27
56
40
47
60
6
44
14
22
25
58
5
61
10
21
63
13
53
34
19
4
23
9
57
28
54
20
55
31
29
26
48
43
45
49
7
39
18
24
50
52
37
41
17
51
15
36
3
8
30
1
12
32
38
35

>  <PUBCHEM_MMFF94_PARTIAL_CHARGES>  (1) 
17
1 -0.36
10 0.66
11 0.15
12 -0.02
16 0.36
17 0.36
18 0.5
19 0.15
2 -0.65
20 0.45
3 -0.57
4 -0.53
5 -0.99
6 1.36
7 -0.49
8 0.33
9 0.28

>  <PUBCHEM_EFFECTIVE_ROTOR_COUNT>  (1) 
4

>  <PUBCHEM_PHARMACOPHORE_FEATURES>  (1) 
7
1 1 acceptor
1 2 acceptor
1 3 acceptor
1 4 donor
1 5 cation
1 5 donor
3 2 3 10 anion

>  <PUBCHEM_HEAVY_ATOM_COUNT>  (1) 
12

>  <PUBCHEM_ATOM_DEF_STEREO_COUNT>  (1) 
0

>  <PUBCHEM_ATOM_UDEF_STEREO_COUNT>  (1) 
1

>  <PUBCHEM_BOND_DEF_STEREO_COUNT>  (1) 
0

>  <PUBCHEM_BOND_UDEF_STEREO_COUNT>  (1) 
1

>  <PUBCHEM_ISOTOPIC_ATOM_COUNT>  (1) 
0

>  <PUBCHEM_COMPONENT_COUNT>  (1) 
1

>  <PUBCHEM_CACTVS_TAUTO_COUNT>  (1) 
1

>  <PUBCHEM_CONFORMER_ID>  (1) 
0000033F00000002

>  <PUBCHEM_MMFF94_ENERGY>  (1) 
11.8341

>  <PUBCHEM_FEATURE_SELFOVERLAP>  (1) 
35.58

>  <PUBCHEM_SHAPE_FINGERPRINT>  (1) 
12251169 10 11671777139853161238
12932764 1 18335146340819543872
14251717 144 18272368680833994783
14252887 29 17917998269556298058
14325111 11 18411698781573666569
177051 138 17489872622176205095
20201158 50 18407761451745900578
20279233 1 18187083987588507291
20281407 28 18334862731576390059
20645477 70 18272370871283146759
22485316 2 18342452677665215127
23557571 272 17385712582995106860
522135 26 18409167701495669667
581208 293 18340482360990861786
8030462 33 17749113253232836560
94968 8 18412832369461581934

>  <PUBCHEM_SHAPE_MULTIPOLES>  (1) 
208.53
7.39
1.4
0.78
6.52
0.01
0.11
-1.12
0.94
-1.12
-0.04
-0.4
-0.09
0.38

>  <PUBCHEM_SHAPE_SELFOVERLAP>  (1) 
401.883

>  <PUBCHEM_SHAPE_VOLUME>  (1) 
124.3

>  <PUBCHEM_COORDINATE_TYPE>  (1) 
2
5
10

$$$$
