8329
     RDKit          3D

 24 26  0  0  0  0  0  0  0  0999 V2000
   -4.0625   -0.6501   -0.0330 S   0  0  0  0  0  0  0  0  0  0  0  0
    4.0624    0.6504   -0.0321 S   0  0  0  0  0  0  0  0  0  0  0  0
   -1.7019   -2.0580   -0.0344 O   0  0  0  0  0  0  0  0  0  0  0  0
    1.7019    2.0581   -0.0382 O   0  0  0  0  0  0  0  0  0  0  0  0
   -3.9906   -1.3292    1.4494 O   0  0  0  0  0  0  0  0  0  0  0  0
    3.9883    1.3286    1.4507 O   0  0  0  0  0  0  0  0  0  0  0  0
   -5.3355    0.0427   -0.1282 O   0  0  0  0  0  0  0  0  0  0  0  0
   -3.6774   -1.6488   -1.0133 O   0  0  0  0  0  0  0  0  0  0  0  0
    5.3357   -0.0419   -0.1260 O   0  0  0  0  0  0  0  0  0  0  0  0
    3.6781    1.6495   -1.0123 O   0  0  0  0  0  0  0  0  0  0  0  0
   -1.4200    0.3025   -0.0342 C   0  0  0  0  0  0  0  0  0  0  0  0
    1.4201   -0.3027   -0.0349 C   0  0  0  0  0  0  0  0  0  0  0  0
   -0.5080    1.3601   -0.0348 C   0  0  0  0  0  0  0  0  0  0  0  0
    0.5082   -1.3603   -0.0346 C   0  0  0  0  0  0  0  0  0  0  0  0
   -0.9452   -1.0963   -0.0339 C   0  0  0  0  0  0  0  0  0  0  0  0
    0.9454    1.0961   -0.0353 C   0  0  0  0  0  0  0  0  0  0  0  0
   -2.7949    0.5662   -0.0335 C   0  0  0  0  0  0  0  0  0  0  0  0
    2.7951   -0.5664   -0.0348 C   0  0  0  0  0  0  0  0  0  0  0  0
   -0.9710    2.6814   -0.0347 C   0  0  0  0  0  0  0  0  0  0  0  0
    0.9712   -2.6815   -0.0348 C   0  0  0  0  0  0  0  0  0  0  0  0
   -3.2520    1.8843   -0.0334 C   0  0  0  0  0  0  0  0  0  0  0  0
    3.2523   -1.8846   -0.0349 C   0  0  0  0  0  0  0  0  0  0  0  0
   -2.3420    2.9397   -0.0339 C   0  0  0  0  0  0  0  0  0  0  0  0
    2.3423   -2.9399   -0.0350 C   0  0  0  0  0  0  0  0  0  0  0  0
  1  5  1  0
  1  7  2  0
  1  8  2  0
  1 17  1  0
  2  6  1  0
  2  9  2  0
  2 10  2  0
  2 18  1  0
  3 15  2  0
  4 16  2  0
 11 13  2  0
 11 15  1  0
 11 17  1  0
 12 14  2  0
 12 16  1  0
 12 18  1  0
 13 16  1  0
 13 19  1  0
 14 15  1  0
 14 20  1  0
 17 21  2  0
 18 22  2  0
 19 23  2  0
 20 24  2  0
 21 23  1  0
 22 24  1  0
M  END
>  <PUBCHEM_COMPOUND_CID>  (1) 
8329

>  <PUBCHEM_CONFORMER_RMSD>  (1) 
0.6

>  <PUBCHEM_CONFORMER_DIVERSEORDER>  (1) 
1

>  <PUBCHEM_MMFF94_PARTIAL_CHARGES>  (1) 
32
1 1.49
10 -0.65
11 0.09
12 0.09
13 0.09
14 0.09
15 0.4
16 0.4
17 -0.01
18 -0.01
19 -0.15
2 1.49
20 -0.15
21 -0.15
22 -0.15
23 -0.15
24 -0.15
25 0.15
26 0.15
27 0.15
28 0.15
29 0.15
3 -0.57
30 0.15
31 0.5
32 0.5
4 -0.57
5 -0.68
6 -0.68
7 -0.65
8 -0.65
9 -0.65

>  <PUBCHEM_EFFECTIVE_ROTOR_COUNT>  (1) 
2

>  <PUBCHEM_PHARMACOPHORE_FEATURES>  (1) 
13
1 10 acceptor
1 3 acceptor
1 4 acceptor
1 5 acceptor
1 6 acceptor
1 7 acceptor
1 8 acceptor
1 9 acceptor
4 1 5 7 8 anion
4 2 6 9 10 anion
6 11 12 13 14 15 16 rings
6 11 13 17 19 21 23 rings
6 12 14 18 20 22 24 rings

>  <PUBCHEM_HEAVY_ATOM_COUNT>  (1) 
24

>  <PUBCHEM_ATOM_DEF_STEREO_COUNT>  (1) 
0

>  <PUBCHEM_ATOM_UDEF_STEREO_COUNT>  (1) 
0

>  <PUBCHEM_BOND_DEF_STEREO_COUNT>  (1) 
0

>  <PUBCHEM_BOND_UDEF_STEREO_COUNT>  (1) 
0

>  <PUBCHEM_ISOTOPIC_ATOM_COUNT>  (1) 
0

>  <PUBCHEM_COMPONENT_COUNT>  (1) 
1

>  <PUBCHEM_CACTVS_TAUTO_COUNT>  (1) 
1

>  <PUBCHEM_CONFORMER_ID>  (1) 
0000208900000001

>  <PUBCHEM_MMFF94_ENERGY>  (1) 
78.3238

>  <PUBCHEM_FEATURE_SELFOVERLAP>  (1) 
66.272

>  <PUBCHEM_SHAPE_FINGERPRINT>  (1) 
10090160 65 18260544549942387134
10608611 8 18266739082378026442
10616163 171 18411140203585605814
10670039 82 18261970587181437900
10863032 1 18268708312030190444
10967382 1 18410575114738406030
1100329 8 18194683902080057396
11578080 2 17025140826983111014
12553582 1 18339079405881863615
12839892 36 18337935828016342074
13140716 1 18122626329516966218
13224815 77 18410573950791712778
14178342 30 18337662006719182728
14223421 5 18267021665429919270
14787075 74 18042127729152788307
14790565 3 18121512507122359717
15196674 1 18338517417610706981
15442244 35 18194118512733262262
15536298 74 18341894043789994406
16945 1 18410575119022817318
17349148 13 18113615703126333516
17492 89 18265896861036032635
19591789 44 18050291667297223463
20028762 73 17913493725094983239
20510252 161 18342739576832355449
20691752 17 17459761328023658120
20905425 154 18342459197087882636
21267235 1 18410864230573128358
21421861 104 18188205382011684499
21501502 16 18338517417610706980
221490 88 18266186028340978682
22393880 68 18268435625062794748
2334 1 17689998255225569318
23366157 5 17969790670462464362
23402539 116 18342170107155339695
23558518 356 18188218584898998305
23559900 14 18195804072996483722
23566358 2 18339922597787123527
238 59 16599810022476828445
2748010 2 18194683670151823551
2871803 45 18410572868486399598
335352 9 17978229348647369445
34934 24 18412538842732896111
350125 39 18410856525897249170
352729 6 18119538879634122478
392239 28 18059569243496908304
474 4 18040721359481109502
5104073 3 18338797788780823456
5283173 99 17970053466774215333
59755656 215 18409448063822617343
7097593 13 17321537181442399939
7364860 26 18125720085372220614
9709674 26 18265901267376656991

>  <PUBCHEM_SHAPE_MULTIPOLES>  (1) 
454.65
8.85
3.25
0.8
0
0
0.13
0
0.26
0
-0.06
0
0
0.16

>  <PUBCHEM_SHAPE_SELFOVERLAP>  (1) 
1000.965

>  <PUBCHEM_SHAPE_VOLUME>  (1) 
243

>  <PUBCHEM_COORDINATE_TYPE>  (1) 
2
5
10

$$$$
