8332
     RDKit          3D

 20 21  0  0  1  0  0  0  0  0999 V2000
   -4.2914    3.2677    0.4483 Cl  0  0  0  0  0  0  0  0  0  0  0  0
    5.4288    1.7109    0.4424 Cl  0  0  0  0  0  0  0  0  0  0  0  0
   -2.2911   -2.8528    0.8616 O   0  0  0  0  0  0  0  0  0  0  0  0
   -1.6783   -2.8899   -1.2543 O   0  0  0  0  0  0  0  0  0  0  0  0
   -1.4798   -2.6696   -0.0536 N   0  0  0  0  0  0  0  0  0  0  0  0
    0.0440   -0.7835   -0.4569 C   0  0  0  0  0  0  0  0  0  0  0  0
   -0.1514   -2.1137    0.3184 C   0  0  0  0  0  0  0  0  0  0  0  0
   -1.0615    0.2483   -0.2267 C   0  0  0  0  0  0  0  0  0  0  0  0
    1.4136   -0.1480   -0.2278 C   0  0  0  0  0  0  0  0  0  0  0  0
    0.8645   -3.1946   -0.0408 C   0  0  0  0  0  0  0  0  0  0  0  0
   -1.3599    1.1319   -1.2386 C   0  0  0  0  0  0  0  0  0  0  0  0
    1.9692    0.6085   -1.2358 C   0  0  0  0  0  0  0  0  0  0  0  0
   -1.7155    0.2548    0.9843 C   0  0  0  0  0  0  0  0  0  0  0  0
    2.0456   -0.3546    0.9786 C   0  0  0  0  0  0  0  0  0  0  0  0
   -2.3673    2.0735   -1.0281 C   0  0  0  0  0  0  0  0  0  0  0  0
    3.2206    1.1879   -1.0269 C   0  0  0  0  0  0  0  0  0  0  0  0
   -2.7229    1.1964    1.1948 C   0  0  0  0  0  0  0  0  0  0  0  0
    3.2971    0.2249    1.1876 C   0  0  0  0  0  0  0  0  0  0  0  0
   -3.0488    2.1057    0.1885 C   0  0  0  0  0  0  0  0  0  0  0  0
    3.8846    0.9963    0.1849 C   0  0  0  0  0  0  0  0  0  0  0  0
  1 19  1  0
  2 20  1  0
  3  5  1  0
  4  5  2  0
  5  7  1  0
  6  7  1  0
  6  8  1  0
  6  9  1  0
  7 10  1  0
  8 11  2  0
  8 13  1  0
  9 12  2  0
  9 14  1  0
 11 15  1  0
 12 16  1  0
 13 17  2  0
 14 18  2  0
 15 19  2  0
 16 20  2  0
 17 19  1  0
 18 20  1  0
M  CHG  2   3  -1   5   1
M  END
>  <PUBCHEM_COMPOUND_CID>  (1) 
8332

>  <PUBCHEM_CONFORMER_RMSD>  (1) 
0.6

>  <PUBCHEM_CONFORMER_DIVERSEORDER>  (1) 
1
8
6
5
9
7
3
4
2

>  <PUBCHEM_MMFF94_PARTIAL_CHARGES>  (1) 
27
1 -0.18
11 -0.15
12 -0.15
13 -0.15
14 -0.15
15 -0.15
16 -0.15
17 -0.15
18 -0.15
19 0.18
2 -0.18
20 0.18
26 0.15
27 0.15
28 0.15
29 0.15
3 -0.52
30 0.15
31 0.15
32 0.15
33 0.15
4 -0.52
5 0.8
6 0.29
7 0.24
8 -0.14
9 -0.14

>  <PUBCHEM_EFFECTIVE_ROTOR_COUNT>  (1) 
4

>  <PUBCHEM_PHARMACOPHORE_FEATURES>  (1) 
5
1 3 acceptor
1 3 anion
1 4 acceptor
6 8 11 13 15 17 19 rings
6 9 12 14 16 18 20 rings

>  <PUBCHEM_HEAVY_ATOM_COUNT>  (1) 
20

>  <PUBCHEM_ATOM_DEF_STEREO_COUNT>  (1) 
0

>  <PUBCHEM_ATOM_UDEF_STEREO_COUNT>  (1) 
1

>  <PUBCHEM_BOND_DEF_STEREO_COUNT>  (1) 
0

>  <PUBCHEM_BOND_UDEF_STEREO_COUNT>  (1) 
0

>  <PUBCHEM_ISOTOPIC_ATOM_COUNT>  (1) 
0

>  <PUBCHEM_COMPONENT_COUNT>  (1) 
1

>  <PUBCHEM_CACTVS_TAUTO_COUNT>  (1) 
2

>  <PUBCHEM_CONFORMER_ID>  (1) 
0000208C00000001

>  <PUBCHEM_MMFF94_ENERGY>  (1) 
58.3962

>  <PUBCHEM_FEATURE_SELFOVERLAP>  (1) 
25.45

>  <PUBCHEM_SHAPE_FINGERPRINT>  (1) 
10165383 225 18052013304864140944
12035758 1 17902504896712180386
12107183 9 18336254640952831848
12173636 292 18411980303684254220
12788726 201 18120666986974736023
13134695 92 17254266831051056455
13140716 1 18048885396557888587
13583140 156 17702363217954349610
13681431 1 17189545169993016495
13764800 53 18131078163836084120
13878862 14 17255962274240994941
13955234 65 17833842573316523577
13965767 371 18115022992258799204
14142880 1 18335978757190012341
14787075 74 18059851792616394945
15309172 13 18335421210179056605
15342168 16 18338517417912082469
16752209 62 18194104429667562478
16945 1 18269843162907470695
1741750 31 18412261735922379400
18785283 64 18047758087469100299
19765921 60 17915728800236705153
19784866 34 18199751336809987937
20157964 124 17904476312935513293
204376 136 18410290268297147313
20510252 161 18196934581255613554
20600515 1 17550967209059487710
21524375 3 18336543828693546033
21731228 192 18261111842139250272
21756936 100 18272081704299687432
22112679 90 17832448731394871695
22149856 69 17902824894158469801
22182937 141 18342738567578779648
2255824 54 17837772223231054687
23402539 116 18053377988010422022
23419403 2 17055815303370649683
23557571 272 18128548252712313324
23558518 356 18260831531357640082
23559900 14 17760650266056877665
2748010 2 17826520967867240149
283562 15 18193828460691355586
312423 11 17750803344982415820
350125 39 18338808835563984026
3729539 64 17690592713772030622
4340502 62 18269278972241290033
474 4 18124310515354431217
49207404 50 18116732720086685273
495365 180 17977103462185058649
59755656 520 18341891861793686092
633830 44 17986109604645911981
6443956 14 17259344362773169855
6992083 37 17968087651467875796
7097593 13 17895184485838292018
7364860 26 17835522622303390381
7808743 9 18410295847961273072
81228 2 18194407920387968078
8272917 22 17836933300412835857
84936 182 17912923885633749705
9862522 239 17895461540988180788
9981440 41 17129262551283487170

>  <PUBCHEM_SHAPE_MULTIPOLES>  (1) 
398.61
7.59
3.76
1.25
4.5
3.07
0.09
-8.72
-1.7
-2.8
0.09
-0.04
-0.17
-0.18

>  <PUBCHEM_SHAPE_SELFOVERLAP>  (1) 
835.124

>  <PUBCHEM_SHAPE_VOLUME>  (1) 
228.1

>  <PUBCHEM_COORDINATE_TYPE>  (1) 
2
5
10

$$$$
