8336
     RDKit          3D

 19 20  0  0  0  0  0  0  0  0999 V2000
    3.3406   -0.1387   -0.0407 S   0  0  0  0  0  0  0  0  0  0  0  0
   -3.5336   -0.1592   -0.0452 S   0  0  0  0  0  0  0  0  0  0  0  0
    3.5773    0.4919    1.4447 O   0  0  0  0  0  0  0  0  0  0  0  0
   -3.7372   -0.8168    1.4345 O   0  0  0  0  0  0  0  0  0  0  0  0
    4.1607   -1.3316   -0.1408 O   0  0  0  0  0  0  0  0  0  0  0  0
    3.4434    0.9296   -1.0161 O   0  0  0  0  0  0  0  0  0  0  0  0
   -4.4257    0.9831   -0.1359 O   0  0  0  0  0  0  0  0  0  0  0  0
   -3.5762   -1.2245   -1.0300 O   0  0  0  0  0  0  0  0  0  0  0  0
    1.8991    2.2724   -0.0328 N   0  0  0  0  0  0  0  0  0  0  0  0
    0.5320    0.1865   -0.0418 C   0  0  0  0  0  0  0  0  0  0  0  0
   -0.7616   -0.3877   -0.0454 C   0  0  0  0  0  0  0  0  0  0  0  0
    1.6567   -0.6545   -0.0447 C   0  0  0  0  0  0  0  0  0  0  0  0
   -1.8863    0.4533   -0.0427 C   0  0  0  0  0  0  0  0  0  0  0  0
    0.6626    1.5847   -0.0358 C   0  0  0  0  0  0  0  0  0  0  0  0
   -0.8923   -1.7860   -0.0515 C   0  0  0  0  0  0  0  0  0  0  0  0
   -1.7379    1.8405   -0.0369 C   0  0  0  0  0  0  0  0  0  0  0  0
    1.5082   -2.0418   -0.0509 C   0  0  0  0  0  0  0  0  0  0  0  0
   -0.4659    2.4052   -0.0335 C   0  0  0  0  0  0  0  0  0  0  0  0
    0.2361   -2.6065   -0.0543 C   0  0  0  0  0  0  0  0  0  0  0  0
  1  3  1  0
  1  5  2  0
  1  6  2  0
  1 12  1  0
  2  4  1  0
  2  7  2  0
  2  8  2  0
  2 13  1  0
  9 14  1  0
 10 11  1  0
 10 12  2  0
 10 14  1  0
 11 13  1  0
 11 15  2  0
 12 17  1  0
 13 16  2  0
 14 18  2  0
 15 19  1  0
 16 18  1  0
 17 19  2  0
M  END
>  <PUBCHEM_COMPOUND_CID>  (1) 
8336

>  <PUBCHEM_CONFORMER_RMSD>  (1) 
0.6

>  <PUBCHEM_CONFORMER_DIVERSEORDER>  (1) 
1

>  <PUBCHEM_MMFF94_PARTIAL_CHARGES>  (1) 
26
1 1.49
12 -0.01
13 -0.01
14 0.1
15 -0.15
16 -0.15
17 -0.15
18 -0.15
19 -0.15
2 1.49
20 0.15
21 0.15
22 0.15
23 0.15
24 0.15
25 0.4
26 0.4
27 0.5
28 0.5
3 -0.68
4 -0.68
5 -0.65
6 -0.65
7 -0.65
8 -0.65
9 -0.9

>  <PUBCHEM_EFFECTIVE_ROTOR_COUNT>  (1) 
2

>  <PUBCHEM_PHARMACOPHORE_FEATURES>  (1) 
12
1 3 acceptor
1 4 acceptor
1 5 acceptor
1 6 acceptor
1 7 acceptor
1 8 acceptor
1 9 cation
1 9 donor
4 1 3 5 6 anion
4 2 4 7 8 anion
6 10 11 12 15 17 19 rings
6 10 11 13 14 16 18 rings

>  <PUBCHEM_HEAVY_ATOM_COUNT>  (1) 
19

>  <PUBCHEM_ATOM_DEF_STEREO_COUNT>  (1) 
0

>  <PUBCHEM_ATOM_UDEF_STEREO_COUNT>  (1) 
0

>  <PUBCHEM_BOND_DEF_STEREO_COUNT>  (1) 
0

>  <PUBCHEM_BOND_UDEF_STEREO_COUNT>  (1) 
0

>  <PUBCHEM_ISOTOPIC_ATOM_COUNT>  (1) 
0

>  <PUBCHEM_COMPONENT_COUNT>  (1) 
1

>  <PUBCHEM_CACTVS_TAUTO_COUNT>  (1) 
1

>  <PUBCHEM_CONFORMER_ID>  (1) 
0000209000000001

>  <PUBCHEM_MMFF94_ENERGY>  (1) 
78.2169

>  <PUBCHEM_FEATURE_SELFOVERLAP>  (1) 
61.037

>  <PUBCHEM_SHAPE_FINGERPRINT>  (1) 
10062212 137 18408880720428849263
10759866 29 17822300110611772942
10967382 1 18410856606995238670
11132069 177 18342450452339379851
11471102 20 18410290298509371269
11578080 2 17415808419908658289
11680986 33 18193276522912131930
12403259 226 18341323384728927448
12596599 1 17632026316005049271
13140716 1 18194401319033517698
13172582 1 18411135852815376978
13221675 6 18411138030384966407
13583140 156 16806151289336538467
13862211 1 18410569574231139870
14178342 30 18123462787615716720
14251717 144 18411412934267436183
14614273 12 18043246834531943821
14790565 3 18338534009070319901
15196674 1 18410856568240280253
15309172 13 18341900688231157827
15536298 74 18273493485518668244
15848702 151 17489035850777763102
16945 1 18410855485950765110
18186145 218 17989212563581372810
193761 8 17690279730218143238
19591789 44 18337959007633390063
200 152 18201994422329480637
20028762 73 17985270922420013935
20510252 161 18272086063659870784
20645476 183 17751376190018007470
20905425 154 18053383189326229942
21267235 1 18338807718840526791
21421861 104 17753611239517286803
21501502 16 18050568443521501723
21634736 98 17912632811684493175
2334 1 17834394896840333070
23388829 49 18412260614809126173
23402539 116 18342448227836659558
23463225 33 18335419024235530822
23493267 7 17530959168651722113
23559900 14 18191865617972013350
2748010 2 18123186809938110230
335352 9 18338516331036755109
34934 24 18339353055639138085
350125 39 18267023856469914610
4072396 5 18262499408723117035
43471831 8 18191301585555114274
5104073 3 18410856559682021009
537710 114 18409173216054459684
7364860 26 17911235023199767910
8809292 202 18186809079970310979

>  <PUBCHEM_SHAPE_MULTIPOLES>  (1) 
358.51
6.79
2.59
0.85
1.15
0.05
-0.15
-0.36
-0.28
-0.3
0.12
0.02
-0.04
0.04

>  <PUBCHEM_SHAPE_SELFOVERLAP>  (1) 
763.182

>  <PUBCHEM_SHAPE_VOLUME>  (1) 
199.2

>  <PUBCHEM_COORDINATE_TYPE>  (1) 
2
5
10

$$$$
