8344
     RDKit          3D

 20 20  0  0  0  0  0  0  0  0999 V2000
    0.3519   -1.7601   -0.3269 O   0  0  0  0  0  0  0  0  0  0  0  0
   -0.7024    1.4419    0.5883 O   0  0  0  0  0  0  0  0  0  0  0  0
   -2.4267   -1.9710   -0.0187 O   0  0  0  0  0  0  0  0  0  0  0  0
   -3.1399    1.6051   -0.7518 O   0  0  0  0  0  0  0  0  0  0  0  0
    2.2607   -2.5025    0.7238 O   0  0  0  0  0  0  0  0  0  0  0  0
    0.2910    0.1947    2.2485 O   0  0  0  0  0  0  0  0  0  0  0  0
    2.1590   -0.2912   -0.1619 C   0  0  0  0  0  0  0  0  0  0  0  0
    1.5438    0.8593    0.3318 C   0  0  0  0  0  0  0  0  0  0  0  0
    3.3025   -0.1855   -0.9538 C   0  0  0  0  0  0  0  0  0  0  0  0
    2.0723    2.1153    0.0337 C   0  0  0  0  0  0  0  0  0  0  0  0
    1.6317   -1.6173    0.1323 C   0  0  0  0  0  0  0  0  0  0  0  0
    0.3486    0.7819    1.1618 C   0  0  0  0  0  0  0  0  0  0  0  0
   -0.2785   -3.0246   -0.0961 C   0  0  0  0  0  0  0  0  0  0  0  0
   -1.9378    1.4385    1.3118 C   0  0  0  0  0  0  0  0  0  0  0  0
    3.8308    1.0707   -1.2518 C   0  0  0  0  0  0  0  0  0  0  0  0
    3.2157    2.2211   -0.7581 C   0  0  0  0  0  0  0  0  0  0  0  0
   -1.6810   -2.9909   -0.6721 C   0  0  0  0  0  0  0  0  0  0  0  0
   -2.9752    2.2141    0.5231 C   0  0  0  0  0  0  0  0  0  0  0  0
   -3.7468   -1.8791   -0.5357 C   0  0  0  0  0  0  0  0  0  0  0  0
   -4.1199    2.2796   -1.5283 C   0  0  0  0  0  0  0  0  0  0  0  0
  1 11  1  0
  1 13  1  0
  2 12  1  0
  2 14  1  0
  3 17  1  0
  3 19  1  0
  4 18  1  0
  4 20  1  0
  5 11  2  0
  6 12  2  0
  7  8  2  0
  7  9  1  0
  7 11  1  0
  8 10  1  0
  8 12  1  0
  9 15  2  0
 10 16  2  0
 13 17  1  0
 14 18  1  0
 15 16  1  0
M  END
>  <PUBCHEM_COMPOUND_CID>  (1) 
8344

>  <PUBCHEM_CONFORMER_RMSD>  (1) 
1

>  <PUBCHEM_CONFORMER_DIVERSEORDER>  (1) 
1
36
17
20
31
27
22
50
35
53
26
49
33
29
2
16
42
28
7
47
38
32
34
12
19
23
48
30
18
5
3
51
15
21
37
13
9
24
8
46
41
10
45
6
39
25
43
52
40
44
11
14
4

>  <PUBCHEM_MMFF94_PARTIAL_CHARGES>  (1) 
24
1 -0.43
10 -0.15
11 0.63
12 0.63
13 0.28
14 0.28
15 -0.15
16 -0.15
17 0.28
18 0.28
19 0.28
2 -0.43
20 0.28
21 0.15
22 0.15
27 0.15
28 0.15
3 -0.56
4 -0.56
5 -0.57
6 -0.57
7 0.09
8 0.09
9 -0.15

>  <PUBCHEM_EFFECTIVE_ROTOR_COUNT>  (1) 
10

>  <PUBCHEM_PHARMACOPHORE_FEATURES>  (1) 
5
1 3 acceptor
1 4 acceptor
1 5 acceptor
1 6 acceptor
6 7 8 9 10 15 16 rings

>  <PUBCHEM_HEAVY_ATOM_COUNT>  (1) 
20

>  <PUBCHEM_ATOM_DEF_STEREO_COUNT>  (1) 
0

>  <PUBCHEM_ATOM_UDEF_STEREO_COUNT>  (1) 
0

>  <PUBCHEM_BOND_DEF_STEREO_COUNT>  (1) 
0

>  <PUBCHEM_BOND_UDEF_STEREO_COUNT>  (1) 
0

>  <PUBCHEM_ISOTOPIC_ATOM_COUNT>  (1) 
0

>  <PUBCHEM_COMPONENT_COUNT>  (1) 
1

>  <PUBCHEM_CACTVS_TAUTO_COUNT>  (1) 
1

>  <PUBCHEM_CONFORMER_ID>  (1) 
0000209800000001

>  <PUBCHEM_MMFF94_ENERGY>  (1) 
57.4275

>  <PUBCHEM_FEATURE_SELFOVERLAP>  (1) 
25.374

>  <PUBCHEM_SHAPE_FINGERPRINT>  (1) 
104564 63 18200042853277389307
10498660 4 18048302633894217127
10756046 5 18340499910601968262
10759866 29 18334012795897521895
12054548 360 17838618112523631423
13134695 92 17608658206548901744
13583140 156 17532949198798768123
13836976 161 18194677060656266301
14251745 187 17840305845555144514
14251751 93 18411145748472761493
15210252 30 17828747775540673317
16945 1 18054243282508008602
17357779 13 17984976257492137799
17921350 177 16666522955037653909
17980427 26 16805600314010414640
20645477 70 18046638806376250049
21285901 2 17841448216704012630
23559900 14 18130805451769323428
23566358 2 18200611249381068310
238 59 18191861220046717773
2871803 45 18269556211810287671
3060560 45 18264777553924517028
53917941 68 18337113470902723772
81228 2 17764324125009918216

>  <PUBCHEM_SHAPE_MULTIPOLES>  (1) 
376.37
6.71
3.93
1.37
2.18
1.91
0.3
-3.16
-3.37
2.6
-0.57
0.27
-0.6
-0.37

>  <PUBCHEM_SHAPE_SELFOVERLAP>  (1) 
763.024

>  <PUBCHEM_SHAPE_VOLUME>  (1) 
220.4

>  <PUBCHEM_COORDINATE_TYPE>  (1) 
2
5
10

$$$$
