8348
     RDKit          3D

 15 16  0  0  0  0  0  0  0  0999 V2000
    1.3137   -0.8569   -2.0611 O   0  0  0  0  0  0  0  0  0  0  0  0
   -0.1291   -2.2084    0.6678 O   0  0  0  0  0  0  0  0  0  0  0  0
    1.1992   -0.3238    0.2743 C   0  0  0  0  0  0  0  0  0  0  0  0
   -1.3828   -0.2961    0.1752 C   0  0  0  0  0  0  0  0  0  0  0  0
   -0.1282   -1.0009    0.3851 C   0  0  0  0  0  0  0  0  0  0  0  0
    1.8439   -0.2901   -0.9407 C   0  0  0  0  0  0  0  0  0  0  0  0
    1.7260    0.2439    1.4127 C   0  0  0  0  0  0  0  0  0  0  0  0
   -1.3749    1.0620   -0.1430 C   0  0  0  0  0  0  0  0  0  0  0  0
   -2.5940   -0.9782    0.2918 C   0  0  0  0  0  0  0  0  0  0  0  0
    3.0828    0.3459   -1.0228 C   0  0  0  0  0  0  0  0  0  0  0  0
    2.9649    0.8797    1.3304 C   0  0  0  0  0  0  0  0  0  0  0  0
    3.6432    0.9306    0.1128 C   0  0  0  0  0  0  0  0  0  0  0  0
   -2.5783    1.7381   -0.3446 C   0  0  0  0  0  0  0  0  0  0  0  0
   -3.7973   -0.3019    0.0902 C   0  0  0  0  0  0  0  0  0  0  0  0
   -3.7893    1.0562   -0.2281 C   0  0  0  0  0  0  0  0  0  0  0  0
  1  6  1  0
  2  5  2  0
  3  5  1  0
  3  6  2  0
  3  7  1  0
  4  5  1  0
  4  8  2  0
  4  9  1  0
  6 10  1  0
  7 11  2  0
  8 13  1  0
  9 14  2  0
 10 12  2  0
 11 12  1  0
 13 15  2  0
 14 15  1  0
M  END
>  <PUBCHEM_COMPOUND_CID>  (1) 
8348

>  <PUBCHEM_CONFORMER_RMSD>  (1) 
0.6

>  <PUBCHEM_CONFORMER_DIVERSEORDER>  (1) 
1
2

>  <PUBCHEM_MMFF94_PARTIAL_CHARGES>  (1) 
25
1 -0.53
10 -0.15
11 -0.15
12 -0.15
13 -0.15
14 -0.15
15 -0.15
16 0.15
17 0.15
18 0.15
19 0.15
2 -0.57
20 0.15
21 0.15
22 0.15
23 0.15
24 0.15
25 0.45
3 0.09
4 0.09
5 0.4
6 0.08
7 -0.15
8 -0.15
9 -0.15

>  <PUBCHEM_EFFECTIVE_ROTOR_COUNT>  (1) 
2

>  <PUBCHEM_PHARMACOPHORE_FEATURES>  (1) 
4
1 1 donor
1 2 acceptor
6 3 6 7 10 11 12 rings
6 4 8 9 13 14 15 rings

>  <PUBCHEM_HEAVY_ATOM_COUNT>  (1) 
15

>  <PUBCHEM_ATOM_DEF_STEREO_COUNT>  (1) 
0

>  <PUBCHEM_ATOM_UDEF_STEREO_COUNT>  (1) 
0

>  <PUBCHEM_BOND_DEF_STEREO_COUNT>  (1) 
0

>  <PUBCHEM_BOND_UDEF_STEREO_COUNT>  (1) 
0

>  <PUBCHEM_ISOTOPIC_ATOM_COUNT>  (1) 
0

>  <PUBCHEM_COMPONENT_COUNT>  (1) 
1

>  <PUBCHEM_CACTVS_TAUTO_COUNT>  (1) 
5

>  <PUBCHEM_CONFORMER_ID>  (1) 
0000209C00000001

>  <PUBCHEM_MMFF94_ENERGY>  (1) 
50.0692

>  <PUBCHEM_FEATURE_SELFOVERLAP>  (1) 
20.297

>  <PUBCHEM_SHAPE_FINGERPRINT>  (1) 
10219947 1 14923939059559806472
10498660 4 18335980879099470557
107287 299 17704072897477616277
11031198 65 17489871552755767612
11132069 177 18186800271008236829
11543360 7 16558736941229860877
11640471 11 17023763332208037244
12119455 92 17703780445113142680
12236239 1 17095520725259309736
12251169 10 14923947859657691217
13538477 17 17458909373905275146
13764800 53 18260840280237118545
14614273 12 18040989597479442357
15219456 202 18060702788170840612
15375462 478 16298379145717949917
15775835 57 17676209073843751940
16945 1 18337383971472848586
17357779 13 16268236193873453799
17357990 137 17313681385704444990
17846911 113 18334852831592474121
18186145 218 18131079216018630042
19786989 88 17346593088606925575
200 152 15698006223350279242
20645477 70 16988570065078456967
21639500 275 16558744663449015192
21947302 44 18060421296325484122
22802520 49 17844821290744632120
23048698 100 16370722647149387240
23402539 116 18411409644311827564
23402655 69 16415485934458984161
23557571 272 18270971249079137735
23559900 14 18412268329103120414
25 1 17346604079602315754
276578 36 18113899338434781626
305870 269 18114456760596637242
3060560 45 16845567621699143204
474 4 16300087933323161892
7364860 26 18194677055976638379
77492 1 17095520738022911834
81228 2 17836365217520244291

>  <PUBCHEM_SHAPE_MULTIPOLES>  (1) 
296.95
6.61
1.53
1.27
1.7
0.18
-0.26
-2.36
-0.03
0.75
0.09
-1.2
0.1
0.55

>  <PUBCHEM_SHAPE_SELFOVERLAP>  (1) 
648.992

>  <PUBCHEM_SHAPE_VOLUME>  (1) 
160.9

>  <PUBCHEM_COORDINATE_TYPE>  (1) 
2
5
10

$$$$
