8351
     RDKit          3D

 13 14  0  0  0  0  0  0  0  0999 V2000
   -0.7206   -1.3428    0.0036 N   0  0  0  0  0  0  0  0  0  0  0  0
   -1.0282    1.0372    0.0004 C   0  0  0  0  0  0  0  0  0  0  0  0
    0.4432    0.6476    0.0006 C   0  0  0  0  0  0  0  0  0  0  0  0
   -1.7117   -0.3592    0.0005 C   0  0  0  0  0  0  0  0  0  0  0  0
    0.5490   -0.7565    0.0016 C   0  0  0  0  0  0  0  0  0  0  0  0
   -1.3701    1.8370   -1.2642 C   0  0  0  0  0  0  0  0  0  0  0  0
   -1.3700    1.8376    1.2648 C   0  0  0  0  0  0  0  0  0  0  0  0
    1.5670    1.4603   -0.0009 C   0  0  0  0  0  0  0  0  0  0  0  0
    1.7973   -1.3595    0.0006 C   0  0  0  0  0  0  0  0  0  0  0  0
   -0.8692   -2.7825   -0.0018 C   0  0  0  0  0  0  0  0  0  0  0  0
   -3.0437   -0.5225   -0.0029 C   0  0  0  0  0  0  0  0  0  0  0  0
    2.8215    0.8507   -0.0015 C   0  0  0  0  0  0  0  0  0  0  0  0
    2.9356   -0.5475   -0.0008 C   0  0  0  0  0  0  0  0  0  0  0  0
  1  4  1  0
  1  5  1  0
  1 10  1  0
  2  3  1  0
  2  4  1  0
  2  6  1  0
  2  7  1  0
  3  5  2  0
  3  8  1  0
  4 11  2  0
  5  9  1  0
  8 12  2  0
  9 13  2  0
 12 13  1  0
M  END
>  <PUBCHEM_COMPOUND_CID>  (1) 
8351

>  <PUBCHEM_CONFORMER_RMSD>  (1) 
0.4

>  <PUBCHEM_CONFORMER_DIVERSEORDER>  (1) 
1

>  <PUBCHEM_MMFF94_PARTIAL_CHARGES>  (1) 
17
1 -0.57
10 0.37
11 -0.3
12 -0.15
13 -0.15
2 0.28
20 0.15
21 0.15
25 0.15
26 0.15
27 0.15
28 0.15
3 -0.14
4 -0.04
5 0.1
8 -0.15
9 -0.15

>  <PUBCHEM_EFFECTIVE_ROTOR_COUNT>  (1) 
0.4

>  <PUBCHEM_PHARMACOPHORE_FEATURES>  (1) 
4
1 1 cation
3 2 6 7 hydrophobe
5 1 2 3 4 5 rings
6 3 5 8 9 12 13 rings

>  <PUBCHEM_HEAVY_ATOM_COUNT>  (1) 
13

>  <PUBCHEM_ATOM_DEF_STEREO_COUNT>  (1) 
0

>  <PUBCHEM_ATOM_UDEF_STEREO_COUNT>  (1) 
0

>  <PUBCHEM_BOND_DEF_STEREO_COUNT>  (1) 
0

>  <PUBCHEM_BOND_UDEF_STEREO_COUNT>  (1) 
0

>  <PUBCHEM_ISOTOPIC_ATOM_COUNT>  (1) 
0

>  <PUBCHEM_COMPONENT_COUNT>  (1) 
1

>  <PUBCHEM_CACTVS_TAUTO_COUNT>  (1) 
1

>  <PUBCHEM_CONFORMER_ID>  (1) 
0000209F00000001

>  <PUBCHEM_MMFF94_ENERGY>  (1) 
48.0526

>  <PUBCHEM_FEATURE_SELFOVERLAP>  (1) 
20.381

>  <PUBCHEM_SHAPE_FINGERPRINT>  (1) 
10967382 1 18338797943478922374
11206711 2 18336264548350172013
12382932 28 18197779018864893274
12423570 1 11134975286658882293
12524768 44 18338803428104855590
13024252 1 15140679185067494369
13140716 1 18194963182618812442
14614273 12 18335412508717635892
14617773 55 17988928838416384617
15775835 57 18189061906049103604
16945 1 18338799030095046784
17844478 74 18114188548742394641
193761 8 17762056541017066919
20510252 161 18273215283243929000
20588541 1 18339362001544481567
21501502 16 18411141290381208096
2334 1 18266458715703585070
23402539 116 18271794739890269830
23419403 2 16684788432813289300
23552423 10 18045219598815201750
23559900 14 18199196075807979638
25 1 17613706029751043277
2748010 2 18265895744259379766
353137 74 18336256907613901467
369184 2 18342172258828537528
5084963 1 18335421240285798200
5255222 1 18339071709073810720
528886 8 18266735968627119674

>  <PUBCHEM_SHAPE_MULTIPOLES>  (1) 
262.55
3.82
2.44
0.86
1.24
0.86
0
-0.01
0
-0.72
0
-0.35
-0.46
0

>  <PUBCHEM_SHAPE_SELFOVERLAP>  (1) 
560.989

>  <PUBCHEM_SHAPE_VOLUME>  (1) 
148.9

>  <PUBCHEM_COORDINATE_TYPE>  (1) 
2
5
10

$$$$
