8353
     RDKit          3D

 18 19  0  0  0  0  0  0  0  0999 V2000
   -3.7543   -0.9645    0.0974 S   0  0  0  0  0  0  0  0  0  0  0  0
    3.7854   -0.7302   -0.4023 O   0  0  0  0  0  0  0  0  0  0  0  0
   -4.2352   -1.0420   -1.4633 O   0  0  0  0  0  0  0  0  0  0  0  0
   -3.4735   -2.3278    0.5233 O   0  0  0  0  0  0  0  0  0  0  0  0
   -4.7093   -0.1423    0.8240 O   0  0  0  0  0  0  0  0  0  0  0  0
    1.4616    3.4261    0.1239 N   0  0  0  0  0  0  0  0  0  0  0  0
    0.1822   -0.0848   -0.0984 C   0  0  0  0  0  0  0  0  0  0  0  0
    0.1826    1.3249    0.0263 C   0  0  0  0  0  0  0  0  0  0  0  0
    1.4049    2.0160    0.0030 C   0  0  0  0  0  0  0  0  0  0  0  0
   -1.0404   -0.7757   -0.0752 C   0  0  0  0  0  0  0  0  0  0  0  0
   -2.2451   -0.0868    0.0690 C   0  0  0  0  0  0  0  0  0  0  0  0
    1.4041   -0.7619   -0.2426 C   0  0  0  0  0  0  0  0  0  0  0  0
   -1.0393    2.0022    0.1702 C   0  0  0  0  0  0  0  0  0  0  0  0
    2.6092   -0.0592   -0.2634 C   0  0  0  0  0  0  0  0  0  0  0  0
   -2.2446    1.2996    0.1912 C   0  0  0  0  0  0  0  0  0  0  0  0
    2.6097    1.3272   -0.1407 C   0  0  0  0  0  0  0  0  0  0  0  0
    3.8405   -2.0579    0.1168 C   0  0  0  0  0  0  0  0  0  0  0  0
    5.2614   -2.3629    0.5409 C   0  0  0  0  0  0  0  0  0  0  0  0
  1  3  1  0
  1  4  2  0
  1  5  2  0
  1 11  1  0
  2 14  1  0
  2 17  1  0
  6  9  1  0
  7  8  1  0
  7 10  1  0
  7 12  2  0
  8  9  2  0
  8 13  1  0
  9 16  1  0
 10 11  2  0
 11 15  1  0
 12 14  1  0
 13 15  2  0
 14 16  2  0
 17 18  1  0
M  END
>  <PUBCHEM_COMPOUND_CID>  (1) 
8353

>  <PUBCHEM_CONFORMER_RMSD>  (1) 
0.6

>  <PUBCHEM_CONFORMER_DIVERSEORDER>  (1) 
2
5
7
3
8
4
6
1

>  <PUBCHEM_MMFF94_PARTIAL_CHARGES>  (1) 
23
1 1.49
10 -0.15
11 -0.01
12 -0.15
13 -0.15
14 0.08
15 -0.15
16 -0.15
17 0.28
19 0.15
2 -0.36
20 0.15
21 0.15
22 0.15
23 0.15
24 0.4
25 0.4
3 -0.68
31 0.5
4 -0.65
5 -0.65
6 -0.9
9 0.1

>  <PUBCHEM_EFFECTIVE_ROTOR_COUNT>  (1) 
3

>  <PUBCHEM_PHARMACOPHORE_FEATURES>  (1) 
9
1 2 acceptor
1 3 acceptor
1 4 acceptor
1 5 acceptor
1 6 cation
1 6 donor
4 1 3 4 5 anion
6 7 8 10 11 13 15 rings
6 7 8 9 12 14 16 rings

>  <PUBCHEM_HEAVY_ATOM_COUNT>  (1) 
18

>  <PUBCHEM_ATOM_DEF_STEREO_COUNT>  (1) 
0

>  <PUBCHEM_ATOM_UDEF_STEREO_COUNT>  (1) 
0

>  <PUBCHEM_BOND_DEF_STEREO_COUNT>  (1) 
0

>  <PUBCHEM_BOND_UDEF_STEREO_COUNT>  (1) 
0

>  <PUBCHEM_ISOTOPIC_ATOM_COUNT>  (1) 
0

>  <PUBCHEM_COMPONENT_COUNT>  (1) 
1

>  <PUBCHEM_CACTVS_TAUTO_COUNT>  (1) 
1

>  <PUBCHEM_CONFORMER_ID>  (1) 
000020A100000002

>  <PUBCHEM_MMFF94_ENERGY>  (1) 
58.7297

>  <PUBCHEM_FEATURE_SELFOVERLAP>  (1) 
45.752

>  <PUBCHEM_SHAPE_FINGERPRINT>  (1) 
10062212 137 18339642235349438223
10967382 1 18195530513286011372
11265709 11 18410576141789562186
11471102 20 18339359781220547461
11543360 7 15936702556740714055
11769659 78 18412545405252740916
12032990 46 18410577249685292254
12403259 226 18335697256401514205
12553582 1 18411990126174532206
13140716 1 18269838623322386880
13955234 65 18124599940094054569
14178342 30 17843696460379332034
14790565 3 17761502786621307812
15042514 8 18122630444454455104
15196674 1 18410576154468878592
15352361 1 18409730621511303698
15442244 35 18412832377946002017
15536298 74 18272093854308428729
16945 1 18267305515550386068
17492 89 18266178520780681259
18186145 218 17822004363395369123
18222031 100 18202845444192456854
200 152 18202275918791518919
20281475 54 18337677511376599487
20645477 70 18264480853394165487
20671657 53 18409451388159063229
20832881 197 18333735684712748155
21267235 1 18338246976484549282
21501502 16 18340217339918324129
21501925 9 18412257346497204520
221490 88 18263651816962453539
2255824 54 18339930445040649516
2297311 6 18127419952135023806
23366157 5 18187931741519700700
23402539 116 18270673160736442126
23463225 33 18341619260419933605
23557571 272 17843135718382005526
23559900 14 18408880767557399680
25147074 1 18266479654022892812
2748010 2 18341323406088141724
3091708 16 9067398079483031016
3286 77 18335421270324033492
335352 9 18338237051337231557
3421961 26 18411418440594753872
5104073 3 18343025492631008513
54173680 148 18194684757211481672
5493415 88 18411698764320054760
58779409 54 18047461236768374700
7364860 26 18269838777909632168
76465 3 18412820283122924182
7970288 3 18410288073749045090
8809292 202 18261118499539168739
8863177 126 17897184600548132179
9709674 26 18262801911891675683

>  <PUBCHEM_SHAPE_MULTIPOLES>  (1) 
345.82
8.82
2.93
0.77
1.1
1.29
-0.1
-7.98
0.59
1.73
0.32
-0.43
-0.18
-0.45

>  <PUBCHEM_SHAPE_SELFOVERLAP>  (1) 
731.559

>  <PUBCHEM_SHAPE_VOLUME>  (1) 
195.4

>  <PUBCHEM_COORDINATE_TYPE>  (1) 
2
5
10

$$$$
