837
     RDKit          3D

 14 15  0  0  1  0  0  0  0  0999 V2000
    3.8758   -0.9546    0.5182 O   0  0  0  0  0  0  0  0  0  0  0  0
   -3.4159    1.3009    0.6992 O   0  0  0  0  0  0  0  0  0  0  0  0
   -3.5004   -1.3692    0.3702 O   0  0  0  0  0  0  0  0  0  0  0  0
    3.1085    1.1040    1.1260 O   0  0  0  0  0  0  0  0  0  0  0  0
    1.2197   -1.1532   -0.4749 N   0  0  0  0  0  0  0  0  0  0  0  0
   -0.1032    0.6790   -0.5561 C   0  0  0  0  0  0  0  0  0  0  0  0
    2.1228   -0.0510   -0.7448 C   0  0  0  0  0  0  0  0  0  0  0  0
   -0.0823   -0.7500   -0.3272 C   0  0  0  0  0  0  0  0  0  0  0  0
    1.1538    1.1035   -0.7771 C   0  0  0  0  0  0  0  0  0  0  0  0
   -1.3595    1.4665   -0.5548 C   0  0  0  0  0  0  0  0  0  0  0  0
   -1.1642   -1.4661   -0.0167 C   0  0  0  0  0  0  0  0  0  0  0  0
   -2.4665    0.7382    0.1698 C   0  0  0  0  0  0  0  0  0  0  0  0
   -2.4533   -0.7725    0.1718 C   0  0  0  0  0  0  0  0  0  0  0  0
    3.0647    0.1245    0.3965 C   0  0  0  0  0  0  0  0  0  0  0  0
  1 14  1  0
  2 12  2  0
  3 13  2  0
  4 14  2  0
  5  7  1  0
  5  8  1  0
  6  8  1  0
  6  9  2  0
  6 10  1  0
  7  9  1  0
  7 14  1  0
  8 11  2  0
 10 12  1  0
 11 13  1  0
 12 13  1  0
M  END
>  <PUBCHEM_COMPOUND_CID>  (1) 
837

>  <PUBCHEM_CONFORMER_RMSD>  (1) 
0.6

>  <PUBCHEM_CONFORMER_DIVERSEORDER>  (1) 
1
2
4
3

>  <PUBCHEM_MMFF94_PARTIAL_CHARGES>  (1) 
18
1 -0.65
10 0.2
11 -0.14
12 0.51
13 0.56
14 0.66
16 0.15
17 0.4
2 -0.57
20 0.15
21 0.5
3 -0.57
4 -0.57
5 -0.87
6 -0.14
7 0.57
8 0.1
9 -0.29

>  <PUBCHEM_EFFECTIVE_ROTOR_COUNT>  (1) 
1.6

>  <PUBCHEM_PHARMACOPHORE_FEATURES>  (1) 
9
1 1 acceptor
1 2 acceptor
1 3 acceptor
1 4 acceptor
1 5 cation
1 5 donor
3 1 4 14 anion
5 5 6 7 8 9 rings
6 6 8 10 11 12 13 rings

>  <PUBCHEM_HEAVY_ATOM_COUNT>  (1) 
14

>  <PUBCHEM_ATOM_DEF_STEREO_COUNT>  (1) 
0

>  <PUBCHEM_ATOM_UDEF_STEREO_COUNT>  (1) 
1

>  <PUBCHEM_BOND_DEF_STEREO_COUNT>  (1) 
0

>  <PUBCHEM_BOND_UDEF_STEREO_COUNT>  (1) 
0

>  <PUBCHEM_ISOTOPIC_ATOM_COUNT>  (1) 
0

>  <PUBCHEM_COMPONENT_COUNT>  (1) 
1

>  <PUBCHEM_CACTVS_TAUTO_COUNT>  (1) 
9

>  <PUBCHEM_CONFORMER_ID>  (1) 
0000034500000001

>  <PUBCHEM_MMFF94_ENERGY>  (1) 
31.1917

>  <PUBCHEM_FEATURE_SELFOVERLAP>  (1) 
45.824

>  <PUBCHEM_SHAPE_FINGERPRINT>  (1) 
10608611 8 18272650134246152720
10857977 72 18409167735649660237
11132069 177 18410015416434034381
12119455 92 17489580121955038460
12251169 10 18338794636612495896
12382932 28 18412548682455258089
12696612 119 18335706069695361788
12932764 1 17632302301834064710
13380535 76 18338518539198707503
13581323 91 18334853931077513620
13705890 14 12468356856089002816
14144814 61 18260831518166126766
15219456 202 18060424577606905382
16945 1 18261117335433973221
17804303 29 18411985719996736574
17834069 15 18335697192013518594
18186145 218 14764357037015797372
19422 9 18040441005322044926
200 152 18272356612492656831
20361792 2 16370722638722853358
20510252 161 18272656765849568969
20525323 117 18343579672525052287
20528008 55 18341606010435171973
20559304 39 18189343527091547860
20645464 45 18130788936411736095
21501502 16 18335710497690651333
21501925 9 18262517112530870607
23402539 116 18342729759075329983
23463225 33 18260270758651268852
23559900 14 18342186514415648854
2748010 2 17612599921311645197
369184 2 18060133262654144190
53812653 166 18342176618156955032
6333449 129 18413386523316355543
7364860 26 18055355730023879502
90316 7 17968369074430660269

>  <PUBCHEM_SHAPE_MULTIPOLES>  (1) 
259.66
5.85
1.6
0.88
1.22
0.02
-0.04
0.38
-2.01
-0.72
0.01
0.34
-0.17
0.04

>  <PUBCHEM_SHAPE_SELFOVERLAP>  (1) 
566.645

>  <PUBCHEM_SHAPE_VOLUME>  (1) 
141.8

>  <PUBCHEM_COORDINATE_TYPE>  (1) 
2
5
10

$$$$
