841
     RDKit          3D

 11 10  0  0  1  0  0  0  0  0999 V2000
   -0.6560   -0.3829   -1.6129 O   0  0  0  0  0  0  0  0  0  0  0  0
   -0.0786    1.9706   -0.0218 O   0  0  0  0  0  0  0  0  0  0  0  0
   -2.5466   -0.0066    1.5050 O   0  0  0  0  0  0  0  0  0  0  0  0
    2.3353    1.0510   -0.5496 O   0  0  0  0  0  0  0  0  0  0  0  0
    3.4680   -1.2402    0.2202 O   0  0  0  0  0  0  0  0  0  0  0  0
   -0.8370   -0.3427   -0.1962 C   0  0  0  0  0  0  0  0  0  0  0  0
    0.1641    0.6450    0.4244 C   0  0  0  0  0  0  0  0  0  0  0  0
   -2.3053    0.0137    0.1008 C   0  0  0  0  0  0  0  0  0  0  0  0
   -3.2782   -0.9523   -0.5679 C   0  0  0  0  0  0  0  0  0  0  0  0
    1.6146    0.2929    0.1004 C   0  0  0  0  0  0  0  0  0  0  0  0
    2.1198   -1.0484    0.5977 C   0  0  0  0  0  0  0  0  0  0  0  0
  1  6  1  0
  2  7  1  0
  3  8  1  0
  4 10  2  0
  5 11  1  0
  6  7  1  0
  6  8  1  0
  7 10  1  0
  8  9  1  0
 10 11  1  0
M  END
>  <PUBCHEM_COMPOUND_CID>  (1) 
841

>  <PUBCHEM_CONFORMER_RMSD>  (1) 
0.6

>  <PUBCHEM_CONFORMER_DIVERSEORDER>  (1) 
1
222
159
220
109
202
161
267
41
304
54
234
199
291
15
270
27
189
309
150
180
254
243
88
185
193
2
38
166
126
224
83
190
213
280
31
120
241
143
191
140
300
295
36
86
6
164
10
37
168
58
96
273
206
236
274
131
115
146
259
45
261
12
139
35
5
276
147
44
210
165
64
133
118
77
62
177
314
231
288
57
283
271
268
71
294
130
265
279
227
135
214
197
21
78
184
260
119
226
311
8
154
302
66
308
20
105
219
117
235
298
89
207
289
23
194
209
72
103
255
192
98
51
195
179
269
281
112
14
87
216
56
76
200
79
204
111
128
277
187
251
53
26
315
100
30
296
301
230
92
11
60
129
34
232
40
123
173
151
52
114
178
246
297
170
215
257
73
49
101
32
127
275
205
69
258
272
68
305
229
252
290
293
156
9
223
198
136
50
211
4
94
82
104
262
97
13
17
162
196
122
61
145
299
186
95
48
312
65
85
284
172
149
7
169
263
46
248
176
153
239
67
142
218
183
249
201
91
157
306
28
250
22
307
70
39
144
240
134
81
74
108
55
244
171
287
228
33
43
253
24
75
264
182
80
242
203
148
175
102
116
138
233
155
310
286
99
245
266
313
278
174
107
59
16
110
121
42
181
188
132
19
113
303
3
238
217
212
225
237
152
124
47
90
285
158
63
163
167
247
282
256
292
106
221
137
160
84
141
208
18
29
125
93
25

>  <PUBCHEM_MMFF94_PARTIAL_CHARGES>  (1) 
14
1 -0.68
10 0.45
11 0.34
18 0.4
2 -0.68
21 0.4
22 0.4
23 0.4
3 -0.68
4 -0.57
5 -0.68
6 0.28
7 0.34
8 0.28

>  <PUBCHEM_EFFECTIVE_ROTOR_COUNT>  (1) 
4

>  <PUBCHEM_PHARMACOPHORE_FEATURES>  (1) 
9
1 1 acceptor
1 1 donor
1 2 acceptor
1 2 donor
1 3 acceptor
1 3 donor
1 4 acceptor
1 5 acceptor
1 5 donor

>  <PUBCHEM_HEAVY_ATOM_COUNT>  (1) 
11

>  <PUBCHEM_ATOM_DEF_STEREO_COUNT>  (1) 
0

>  <PUBCHEM_ATOM_UDEF_STEREO_COUNT>  (1) 
3

>  <PUBCHEM_BOND_DEF_STEREO_COUNT>  (1) 
0

>  <PUBCHEM_BOND_UDEF_STEREO_COUNT>  (1) 
0

>  <PUBCHEM_ISOTOPIC_ATOM_COUNT>  (1) 
0

>  <PUBCHEM_COMPONENT_COUNT>  (1) 
1

>  <PUBCHEM_CACTVS_TAUTO_COUNT>  (1) 
10

>  <PUBCHEM_CONFORMER_ID>  (1) 
0000034900000001

>  <PUBCHEM_MMFF94_ENERGY>  (1) 
10.6871

>  <PUBCHEM_FEATURE_SELFOVERLAP>  (1) 
45.696

>  <PUBCHEM_SHAPE_FINGERPRINT>  (1) 
10857977 72 15913330234201185379
12716758 59 14851594471448850129
12897270 3 15719108045978368058
12932741 1 16877660197065463795
12932764 1 18271813453247492057
14390081 3 8862937294779677298
14993402 34 18059578043779161877
15310529 11 18336261322856307565
16945 1 18115878566586090061
20201158 50 17822006484692911098
20653085 51 8646495171003163259
20653091 64 18057041521893230801
20715346 28 14261357954893067873
20871999 31 14996292439553545587
23552423 10 18187644665609632784
29004967 10 18113900502207459760
3248919 1 17530962522736382449
5084963 1 18130785715618813113

>  <PUBCHEM_SHAPE_MULTIPOLES>  (1) 
197.03
4.88
1.34
1.05
0.06
0.35
-0.02
-2.03
0.34
0.57
-0.03
-0.51
-0.08
-0.5

>  <PUBCHEM_SHAPE_SELFOVERLAP>  (1) 
372.124

>  <PUBCHEM_SHAPE_VOLUME>  (1) 
121.7

>  <PUBCHEM_COORDINATE_TYPE>  (1) 
2
5
10

$$$$
