8410
     RDKit          3D

 22 24  0  0  1  0  0  0  0  0999 V2000
    1.3801    3.5590    2.1357 O   0  0  0  0  0  0  0  0  0  0  0  0
   -3.3224   -2.4178    0.8488 O   0  0  0  0  0  0  0  0  0  0  0  0
   -5.2606   -1.5012   -0.2516 O   0  0  0  0  0  0  0  0  0  0  0  0
   -0.5530    1.5663   -0.1692 C   0  0  0  0  0  0  0  0  0  0  0  0
    0.5893    0.8523   -0.9124 C   0  0  0  0  0  0  0  0  0  0  0  0
    1.9092    1.5692   -0.7666 C   0  0  0  0  0  0  0  0  0  0  0  0
   -0.1327    1.9158    1.2612 C   0  0  0  0  0  0  0  0  0  0  0  0
    2.9522    1.2310   -1.7922 C   0  0  0  0  0  0  0  0  0  0  0  0
   -1.8411    0.7656   -0.2103 C   0  0  0  0  0  0  0  0  0  0  0  0
    3.3833   -0.2374   -1.7636 C   0  0  0  0  0  0  0  0  0  0  0  0
    2.1567    2.4535    0.2118 C   0  0  0  0  0  0  0  0  0  0  0  0
    1.1421    2.7295    1.2597 C   0  0  0  0  0  0  0  0  0  0  0  0
    3.9180   -0.6786   -0.3975 C   0  0  0  0  0  0  0  0  0  0  0  0
    4.3633   -2.1424   -0.4231 C   0  0  0  0  0  0  0  0  0  0  0  0
   -1.8917   -0.4938    0.3895 C   0  0  0  0  0  0  0  0  0  0  0  0
   -2.9701    1.3013   -0.8523 C   0  0  0  0  0  0  0  0  0  0  0  0
   -3.0849   -1.1839    0.3261 C   0  0  0  0  0  0  0  0  0  0  0  0
    4.9241   -2.5766    0.9309 C   0  0  0  0  0  0  0  0  0  0  0  0
   -4.1663    0.5817   -0.9021 C   0  0  0  0  0  0  0  0  0  0  0  0
   -4.1916   -0.6606   -0.3023 C   0  0  0  0  0  0  0  0  0  0  0  0
    5.3990   -4.0207    0.9000 C   0  0  0  0  0  0  0  0  0  0  0  0
   -4.7030   -2.6123    0.4794 C   0  0  0  0  0  0  0  0  0  0  0  0
  1 12  2  0
  2 17  1  0
  2 22  1  0
  3 20  1  0
  3 22  1  0
  4  5  1  0
  4  7  1  0
  4  9  1  0
  5  6  1  0
  6  8  1  0
  6 11  2  0
  7 12  1  0
  8 10  1  0
  9 15  1  0
  9 16  2  0
 10 13  1  0
 11 12  1  0
 13 14  1  0
 14 18  1  0
 15 17  2  0
 16 19  1  0
 17 20  1  0
 18 21  1  0
 19 20  2  0
M  END
>  <PUBCHEM_COMPOUND_CID>  (1) 
8410

>  <PUBCHEM_CONFORMER_RMSD>  (1) 
0.8

>  <PUBCHEM_CONFORMER_DIVERSEORDER>  (1) 
2
32
204
24
10
3
346
104
87
266
338
219
54
340
305
5
217
12
119
263
69
257
158
47
99
231
318
303
304
9
313
35
71
44
326
291
89
7
345
330
230
328
85
49
39
339
93
17
207
55
19
332
247
262
131
256
160
31
284
191
342
290
115
317
187
238
298
133
194
91
239
275
112
100
277
267
306
101
4
173
199
43
297
322
264
311
107
82
6
203
252
241
210
321
235
333
86
166
176
48
30
205
74
272
278
95
125
274
280
292
53
213
214
15
296
236
192
84
185
293
132
41
288
276
58
63
228
227
109
97
140
188
180
38
286
75
211
260
67
79
301
233
337
128
21
223
208
33
108
249
129
234
116
261
198
118
243
28
197
151
172
329
64
222
51
130
8
42
319
221
189
190
18
127
25
254
70
34
307
27
245
98
220
144
225
121
283
111
134
251
110
237
300
212
323
182
255
270
103
20
78
186
226
155
123
161
96
1
327
50
56
335
302
168
14
138
295
331
149
66
183
171
148
52
23
170
45
269
139
142
152
325
285
177
80
206
242
92
196
36
289
73
232
153
81
164
76
195
61
22
181
65
40
163
83
287
209
271
167
16
265
324
248
174
136
143
308
159
11
113
88
316
62
294
77
253
268
165
13
215
343
175
37
218
26
320
147
145
201
193
46
178
141
169
202
250
244
59
154
344
122
312
137
156
309
341
279
146
310
246
68
57
150
135
315
224
117
216
60
336
94
273
258
179
106
105
72
229
334
114
200
90
120
29
314
281
124
282
126
162
259
184
102
240
157
299

>  <PUBCHEM_MMFF94_PARTIAL_CHARGES>  (1) 
21
1 -0.57
11 -0.14
12 0.49
15 -0.15
16 -0.15
17 0.08
19 -0.15
2 -0.36
20 0.08
22 0.56
3 -0.36
32 0.15
37 0.15
38 0.15
4 0.14
41 0.15
5 0.14
6 -0.28
7 0.06
8 0.14
9 -0.14

>  <PUBCHEM_EFFECTIVE_ROTOR_COUNT>  (1) 
7.2

>  <PUBCHEM_PHARMACOPHORE_FEATURES>  (1) 
8
1 1 acceptor
1 2 acceptor
1 21 hydrophobe
1 3 acceptor
5 2 3 17 20 22 rings
5 8 10 13 14 18 hydrophobe
6 4 5 6 7 11 12 rings
6 9 15 16 17 19 20 rings

>  <PUBCHEM_HEAVY_ATOM_COUNT>  (1) 
22

>  <PUBCHEM_ATOM_DEF_STEREO_COUNT>  (1) 
0

>  <PUBCHEM_ATOM_UDEF_STEREO_COUNT>  (1) 
1

>  <PUBCHEM_BOND_DEF_STEREO_COUNT>  (1) 
0

>  <PUBCHEM_BOND_UDEF_STEREO_COUNT>  (1) 
0

>  <PUBCHEM_ISOTOPIC_ATOM_COUNT>  (1) 
0

>  <PUBCHEM_COMPONENT_COUNT>  (1) 
1

>  <PUBCHEM_CACTVS_TAUTO_COUNT>  (1) 
8

>  <PUBCHEM_CONFORMER_ID>  (1) 
000020DA00000002

>  <PUBCHEM_MMFF94_ENERGY>  (1) 
34.7342

>  <PUBCHEM_FEATURE_SELFOVERLAP>  (1) 
40.752

>  <PUBCHEM_SHAPE_FINGERPRINT>  (1) 
10074138 170 17484528836831059232
11405975 8 18272378607083775049
11796584 16 18334293128528632404
12363563 72 18059587862153632308
12553582 1 17489040326191831612
12824470 246 18337400340163094780
12895836 83 7997097177322473238
13533116 47 18199474444900485379
13828863 39 11023526009345154930
13955234 65 18123194764165450968
14251751 18 18333729109186623182
14848160 33 18130794489815246428
14848178 5 18335415725875013198
14866123 147 18195529178026072713
14910302 57 18041268942057331621
15163728 17 7997684359111866418
15352361 1 18335138631786270862
15475509 35 18266464389424221475
1813 80 16125884514568569668
20369508 70 18130231565626373468
20567600 70 18409726266746606194
20626108 58 18187079534203241364
20645477 70 17773887578242876573
21033648 29 15769498612392352411
21049683 118 15836458041954393968
21065201 7 18114455786361721397
21315764 119 17749103379583285879
21344244 78 16559034921807861371
23559900 14 18261948635234413365
23569943 247 18409446973962286331
3004659 81 18187088321775232254
312425 83 17095248029095480884
345986 75 17846232067342277459
44062 13 18114464440071976695
484985 159 17322945647954222534
5104073 3 18059304248694567713
57035037 87 14619646927825358929
57527585 103 17173814603243006994
613672 6 18059010567078008022
633830 44 15213310724191186805
6433294 58 18337679740380847310
88748 71 18260838076576393730
9841814 1 17845944021282361804

>  <PUBCHEM_SHAPE_MULTIPOLES>  (1) 
435.14
11.46
4.31
1.5
1.3
1.49
-0.11
14.69
0.53
4.05
-2.49
1.22
-1
-0.33

>  <PUBCHEM_SHAPE_SELFOVERLAP>  (1) 
915.748

>  <PUBCHEM_SHAPE_VOLUME>  (1) 
244.4

>  <PUBCHEM_COORDINATE_TYPE>  (1) 
2
5
10

$$$$
