8440
     RDKit          3D

 14 15  0  0  0  0  0  0  0  0999 V2000
    2.6722   -1.6249   -0.1299 O   0  0  0  0  0  0  0  0  0  0  0  0
    3.5435    0.5353    0.4881 O   0  0  0  0  0  0  0  0  0  0  0  0
   -1.7206    0.1889   -0.9453 O   0  0  0  0  0  0  0  0  0  0  0  0
   -2.2520   -0.2106    1.2827 O   0  0  0  0  0  0  0  0  0  0  0  0
   -3.9023   -0.1877   -0.3477 N   0  0  0  0  0  0  0  0  0  0  0  0
    1.7279   -0.6473   -0.1998 C   0  0  0  0  0  0  0  0  0  0  0  0
    2.2254    0.5862    0.1532 C   0  0  0  0  0  0  0  0  0  0  0  0
    0.4108   -0.8191   -0.5736 C   0  0  0  0  0  0  0  0  0  0  0  0
   -0.4128    0.3091   -0.5831 C   0  0  0  0  0  0  0  0  0  0  0  0
    1.4335    1.7159    0.1520 C   0  0  0  0  0  0  0  0  0  0  0  0
    3.8200   -0.8682    0.3060 C   0  0  0  0  0  0  0  0  0  0  0  0
    0.0956    1.5694   -0.2224 C   0  0  0  0  0  0  0  0  0  0  0  0
   -2.6064   -0.0839    0.1143 C   0  0  0  0  0  0  0  0  0  0  0  0
   -5.0347   -0.4629    0.5056 C   0  0  0  0  0  0  0  0  0  0  0  0
  1  6  1  0
  1 11  1  0
  2  7  1  0
  2 11  1  0
  3  9  1  0
  3 13  1  0
  4 13  2  0
  5 13  1  0
  5 14  1  0
  6  7  2  0
  6  8  1  0
  7 10  1  0
  8  9  2  0
  9 12  1  0
 10 12  2  0
M  END
>  <PUBCHEM_COMPOUND_CID>  (1) 
8440

>  <PUBCHEM_CONFORMER_RMSD>  (1) 
0.6

>  <PUBCHEM_CONFORMER_DIVERSEORDER>  (1) 
1
15
8
17
5
20
10
14
16
9
23
19
18
13
7
24
2
21
22
12
4
6
11
3

>  <PUBCHEM_MMFF94_PARTIAL_CHARGES>  (1) 
18
1 -0.36
10 -0.15
11 0.56
12 -0.15
13 0.78
14 0.3
15 0.15
16 0.15
19 0.15
2 -0.36
20 0.37
3 -0.23
4 -0.57
5 -0.73
6 0.08
7 0.08
8 -0.15
9 0.08

>  <PUBCHEM_EFFECTIVE_ROTOR_COUNT>  (1) 
3.6

>  <PUBCHEM_PHARMACOPHORE_FEATURES>  (1) 
6
1 1 acceptor
1 2 acceptor
1 4 acceptor
1 5 donor
5 1 2 6 7 11 rings
6 6 7 8 9 10 12 rings

>  <PUBCHEM_HEAVY_ATOM_COUNT>  (1) 
14

>  <PUBCHEM_ATOM_DEF_STEREO_COUNT>  (1) 
0

>  <PUBCHEM_ATOM_UDEF_STEREO_COUNT>  (1) 
0

>  <PUBCHEM_BOND_DEF_STEREO_COUNT>  (1) 
0

>  <PUBCHEM_BOND_UDEF_STEREO_COUNT>  (1) 
0

>  <PUBCHEM_ISOTOPIC_ATOM_COUNT>  (1) 
0

>  <PUBCHEM_COMPONENT_COUNT>  (1) 
1

>  <PUBCHEM_CACTVS_TAUTO_COUNT>  (1) 
2

>  <PUBCHEM_CONFORMER_ID>  (1) 
000020F800000001

>  <PUBCHEM_MMFF94_ENERGY>  (1) 
34.3607

>  <PUBCHEM_FEATURE_SELFOVERLAP>  (1) 
30.601

>  <PUBCHEM_SHAPE_FINGERPRINT>  (1) 
10219947 1 18343019990878076374
11471102 20 18411132554433565436
11471102 22 18410860966381821416
12032990 46 18338516335748583382
12251169 10 18273214213828519055
12346645 6 18131353020500267798
14115302 16 16805614676217716571
14251717 144 18411417319408134631
14252887 29 18343025462761688182
14344429 50 16702019820145920280
15375462 478 17846500318352254753
15501101 241 18408882957822234036
16945 1 18341601638506656868
17844478 74 18260543398970162900
200 152 18130777967803811997
20201158 50 18186802469614741707
20279233 1 17894633664334593611
20281407 28 17894635841872430515
20645477 70 18409163303391409303
20871998 22 18200318693357072294
21501925 9 18411134736145043857
23048698 100 17918277566630941073
23402539 116 16081357549687047111
23557571 272 16732693948551535548
26918003 58 18411983576987339139
2748010 2 18054214446123911804
276578 36 15195570086875662878
4047638 21 11383833774732658214
42 15 18409732859331169985
4990 188 11818994058741721841
69090 78 18336543910915583827
77492 1 17489582398482962085

>  <PUBCHEM_SHAPE_MULTIPOLES>  (1) 
259.66
7.59
1.38
0.84
7.03
0.31
-0.05
-2.25
-1.67
-1.09
0.02
0.32
-0.02
0.2

>  <PUBCHEM_SHAPE_SELFOVERLAP>  (1) 
557.951

>  <PUBCHEM_SHAPE_VOLUME>  (1) 
142.5

>  <PUBCHEM_COORDINATE_TYPE>  (1) 
2
5
10

$$$$
