845
     RDKit          3D

 14 14  0  0  1  0  0  0  0  0999 V2000
   -2.4817    0.8515    0.0731 P   0  0  0  0  0  0  0  0  0  0  0  0
   -1.8095   -0.6139    0.1951 O   0  0  0  0  0  0  0  0  0  0  0  0
   -3.1232    0.8584   -1.4113 O   0  0  0  0  0  0  0  0  0  0  0  0
   -1.1972    1.8231   -0.0723 O   0  0  0  0  0  0  0  0  0  0  0  0
   -3.4266    1.2117    1.1821 O   0  0  0  0  0  0  0  0  0  0  0  0
   -0.5092   -3.1905    0.2419 N   0  0  0  0  0  0  0  0  0  0  0  0
    2.6509   -0.2442   -0.6474 N   0  0  0  0  0  0  0  0  0  0  0  0
    2.7361    1.8267    0.1501 N   0  0  0  0  0  0  0  0  0  0  0  0
    0.1603   -1.9909   -0.2743 C   0  0  0  0  0  0  0  0  0  0  0  0
    1.0280   -1.3950    0.8510 C   0  0  0  0  0  0  0  0  0  0  0  0
   -0.9025   -1.0270   -0.8186 C   0  0  0  0  0  0  0  0  0  0  0  0
    1.8171   -0.1852    0.4059 C   0  0  0  0  0  0  0  0  0  0  0  0
    1.8654    1.0701    0.8940 C   0  0  0  0  0  0  0  0  0  0  0  0
    3.1921    1.0054   -0.7693 C   0  0  0  0  0  0  0  0  0  0  0  0
  1  2  1  0
  1  3  1  0
  1  4  1  0
  1  5  2  0
  2 11  1  0
  6  9  1  0
  7 12  1  0
  7 14  1  0
  8 13  1  0
  8 14  2  0
  9 10  1  0
  9 11  1  0
 10 12  1  0
 12 13  2  0
M  END
>  <PUBCHEM_COMPOUND_CID>  (1) 
845

>  <PUBCHEM_CONFORMER_RMSD>  (1) 
0.6

>  <PUBCHEM_CONFORMER_DIVERSEORDER>  (1) 
8
17
152
53
150
59
130
70
153
156
158
25
143
35
24
12
110
145
160
56
123
124
151
81
148
44
162
85
112
119
116
61
109
97
60
141
135
78
102
10
14
47
144
131
132
91
43
137
80
50
126
107
84
48
9
15
82
39
154
93
100
118
16
67
54
51
6
90
105
20
1
68
89
30
140
23
133
165
65
95
114
146
134
37
164
104
74
18
96
7
108
157
34
88
49
36
29
40
98
19
38
128
106
122
77
147
117
4
155
129
111
136
63
87
76
5
138
64
121
45
69
11
75
161
33
103
2
163
142
58
92
139
28
66
27
99
26
3
149
21
101
42
62
71
115
32
57
22
46
86
125
31
73
113
55
120
41
79
83
127
72
52
159
94
13

>  <PUBCHEM_MMFF94_PARTIAL_CHARGES>  (1) 
21
1 1.51
10 0.18
11 0.28
12 -0.33
13 0.08
14 0.04
2 -0.55
20 0.36
21 0.36
22 0.27
23 0.15
24 0.15
25 0.5
26 0.5
3 -0.77
4 -0.77
5 -0.7
6 -0.99
7 0.03
8 -0.57
9 0.27

>  <PUBCHEM_EFFECTIVE_ROTOR_COUNT>  (1) 
5

>  <PUBCHEM_PHARMACOPHORE_FEATURES>  (1) 
9
1 3 acceptor
1 4 acceptor
1 5 acceptor
1 6 cation
1 6 donor
1 7 donor
3 7 8 14 cation
4 1 3 4 5 anion
5 7 8 12 13 14 rings

>  <PUBCHEM_HEAVY_ATOM_COUNT>  (1) 
14

>  <PUBCHEM_ATOM_DEF_STEREO_COUNT>  (1) 
0

>  <PUBCHEM_ATOM_UDEF_STEREO_COUNT>  (1) 
1

>  <PUBCHEM_BOND_DEF_STEREO_COUNT>  (1) 
0

>  <PUBCHEM_BOND_UDEF_STEREO_COUNT>  (1) 
0

>  <PUBCHEM_ISOTOPIC_ATOM_COUNT>  (1) 
0

>  <PUBCHEM_COMPONENT_COUNT>  (1) 
1

>  <PUBCHEM_CACTVS_TAUTO_COUNT>  (1) 
2

>  <PUBCHEM_CONFORMER_ID>  (1) 
0000034D00000008

>  <PUBCHEM_MMFF94_ENERGY>  (1) 
-22.3421

>  <PUBCHEM_FEATURE_SELFOVERLAP>  (1) 
45.705

>  <PUBCHEM_SHAPE_FINGERPRINT>  (1) 
100427 49 16969135432511463647
13618510 140 18409726244543795380
13764800 53 18189900996503318563
14386348 128 18410299120150826392
15775835 57 18411987952883923224
16945 1 18193833743532362451
18186145 218 18341898476201596596
19837323 101 18269554021303509810
20361792 2 9439400259175673159
20671657 1 18199746942778466147
21524375 3 18412257337469894223
22094290 62 18408879616780652794
22802520 49 18128268967883729758
23402539 116 17621585542835534398
23419403 2 16907565766632773607
25 1 18342468006139776438
305870 269 18261097578864142282
31174 14 17903935361534465459
430814 3 18259982682441913702
44154327 71 18335431153191948621
449060 62 18340771425633980209
549884 4 17917423229000965272
81228 2 17977381964569666555

>  <PUBCHEM_SHAPE_MULTIPOLES>  (1) 
253.54
5.12
2.57
1.05
0.92
1.68
-0.05
-3.56
-0.44
0.31
0.22
0.27
-0.16
-0.19

>  <PUBCHEM_SHAPE_SELFOVERLAP>  (1) 
496.382

>  <PUBCHEM_SHAPE_VOLUME>  (1) 
154

>  <PUBCHEM_COORDINATE_TYPE>  (1) 
2
5
10

$$$$
