8456
     RDKit          3D

 13 13  0  0  0  0  0  0  0  0999 V2000
   -1.5445    2.1465    0.0110 O   0  0  0  0  0  0  0  0  0  0  0  0
    2.8687   -1.1577   -0.0014 O   0  0  0  0  0  0  0  0  0  0  0  0
   -1.9864   -0.6757   -0.0001 C   0  0  0  0  0  0  0  0  0  0  0  0
   -0.5826   -0.0482    0.0030 C   0  0  0  0  0  0  0  0  0  0  0  0
   -1.8674   -2.2151   -0.0069 C   0  0  0  0  0  0  0  0  0  0  0  0
   -2.7564   -0.2203   -1.2587 C   0  0  0  0  0  0  0  0  0  0  0  0
   -2.8462   -0.2899    1.2250 C   0  0  0  0  0  0  0  0  0  0  0  0
   -0.4621    1.3190    0.0084 C   0  0  0  0  0  0  0  0  0  0  0  0
    0.4960   -0.8989   -0.0006 C   0  0  0  0  0  0  0  0  0  0  0  0
    1.7765   -0.3457    0.0014 C   0  0  0  0  0  0  0  0  0  0  0  0
    0.8186    1.8721    0.0106 C   0  0  0  0  0  0  0  0  0  0  0  0
    1.9378    1.0397    0.0069 C   0  0  0  0  0  0  0  0  0  0  0  0
    4.1480   -0.5256    0.0015 C   0  0  0  0  0  0  0  0  0  0  0  0
  1  8  1  0
  2 10  1  0
  2 13  1  0
  3  4  1  0
  3  5  1  0
  3  6  1  0
  3  7  1  0
  4  8  2  0
  4  9  1  0
  8 11  1  0
  9 10  2  0
 10 12  1  0
 11 12  2  0
M  END
>  <PUBCHEM_COMPOUND_CID>  (1) 
8456

>  <PUBCHEM_CONFORMER_RMSD>  (1) 
0.6

>  <PUBCHEM_CONFORMER_DIVERSEORDER>  (1) 
1
4
2
3

>  <PUBCHEM_MMFF94_PARTIAL_CHARGES>  (1) 
14
1 -0.53
10 0.08
11 -0.15
12 -0.15
13 0.28
2 -0.36
23 0.15
24 0.15
25 0.15
26 0.45
3 0.14
4 -0.14
8 0.08
9 -0.15

>  <PUBCHEM_EFFECTIVE_ROTOR_COUNT>  (1) 
2

>  <PUBCHEM_PHARMACOPHORE_FEATURES>  (1) 
4
1 1 donor
1 2 acceptor
4 3 5 6 7 hydrophobe
6 4 8 9 10 11 12 rings

>  <PUBCHEM_HEAVY_ATOM_COUNT>  (1) 
13

>  <PUBCHEM_ATOM_DEF_STEREO_COUNT>  (1) 
0

>  <PUBCHEM_ATOM_UDEF_STEREO_COUNT>  (1) 
0

>  <PUBCHEM_BOND_DEF_STEREO_COUNT>  (1) 
0

>  <PUBCHEM_BOND_UDEF_STEREO_COUNT>  (1) 
0

>  <PUBCHEM_ISOTOPIC_ATOM_COUNT>  (1) 
0

>  <PUBCHEM_COMPONENT_COUNT>  (1) 
1

>  <PUBCHEM_CACTVS_TAUTO_COUNT>  (1) 
3

>  <PUBCHEM_CONFORMER_ID>  (1) 
0000210800000001

>  <PUBCHEM_MMFF94_ENERGY>  (1) 
57.4008

>  <PUBCHEM_FEATURE_SELFOVERLAP>  (1) 
20.297

>  <PUBCHEM_SHAPE_FINGERPRINT>  (1) 
11206711 2 18336542720639658196
12251169 10 18272381883558019315
12932764 1 17676759963470905931
13024252 1 14707217586778736241
14128692 85 18410859897161726988
14911166 2 18335972108638582631
15375462 189 18186804694619090250
16945 1 18410855464454784102
17844478 74 17676777573279651801
20201158 50 18409725162280679998
20871998 184 18271247097337317964
20871998 22 18270697384589472230
21501502 16 18194127545023014539
2334 1 18050567644657915862
23402539 116 18272078384442559031
23552423 10 18189335847515825668
23559900 14 18197491836858022586
25 1 17899395512362362205
2748010 2 18194116554096131166
5084963 1 18060129951176440611
5493415 88 18337950211598097922
63268167 104 18267866270959784769
7364860 26 18198341960582125920
8809292 202 18188212103746356586

>  <PUBCHEM_SHAPE_MULTIPOLES>  (1) 
255.8
5.14
1.98
0.85
3.38
0.44
-0.01
-1.91
0.03
-0.32
0.01
-0.7
-0.03
0.02

>  <PUBCHEM_SHAPE_SELFOVERLAP>  (1) 
528.994

>  <PUBCHEM_SHAPE_VOLUME>  (1) 
148.8

>  <PUBCHEM_COORDINATE_TYPE>  (1) 
2
5
10

$$$$
