8465
     RDKit          3D

 15 15  0  0  0  0  0  0  0  0999 V2000
    0.8751    1.9492    0.1027 O   0  0  0  0  0  0  0  0  0  0  0  0
   -4.0908    1.4775    0.2178 O   0  0  0  0  0  0  0  0  0  0  0  0
   -4.5455   -1.2501   -0.0623 O   0  0  0  0  0  0  0  0  0  0  0  0
    3.1003    0.4786   -0.1352 N   0  0  0  0  0  0  0  0  0  0  0  0
    4.2302   -0.4397   -0.2690 C   0  0  0  0  0  0  0  0  0  0  0  0
    1.8400   -0.2472   -0.1658 C   0  0  0  0  0  0  0  0  0  0  0  0
    4.2224   -1.4573    0.8681 C   0  0  0  0  0  0  0  0  0  0  0  0
    5.5319    0.3555   -0.2839 C   0  0  0  0  0  0  0  0  0  0  0  0
    0.6957    0.7396   -0.0220 C   0  0  0  0  0  0  0  0  0  0  0  0
   -0.7018    0.2130   -0.0329 C   0  0  0  0  0  0  0  0  0  0  0  0
   -1.7422    1.1035    0.0984 C   0  0  0  0  0  0  0  0  0  0  0  0
   -0.8934   -1.1422   -0.1725 C   0  0  0  0  0  0  0  0  0  0  0  0
   -3.0474    0.6115    0.0890 C   0  0  0  0  0  0  0  0  0  0  0  0
   -2.1986   -1.6343   -0.1814 C   0  0  0  0  0  0  0  0  0  0  0  0
   -3.2756   -0.7576   -0.0509 C   0  0  0  0  0  0  0  0  0  0  0  0
  1  9  2  0
  2 13  1  0
  3 15  1  0
  4  5  1  0
  4  6  1  0
  5  7  1  0
  5  8  1  0
  6  9  1  0
  9 10  1  0
 10 11  2  0
 10 12  1  0
 11 13  1  0
 12 14  2  0
 13 15  2  0
 14 15  1  0
M  END
>  <PUBCHEM_COMPOUND_CID>  (1) 
8465

>  <PUBCHEM_CONFORMER_RMSD>  (1) 
0.6

>  <PUBCHEM_CONFORMER_DIVERSEORDER>  (1) 
1
28
53
48
30
47
44
39
9
56
54
36
17
11
45
43
25
58
29
2
49
27
57
33
20
35
10
41
46
15
52
55
6
51
59
18
26
42
40
5
32
34
4
21
13
16
22
7
3
38
14
37
50
23
12
8
24
19
31

>  <PUBCHEM_MMFF94_PARTIAL_CHARGES>  (1) 
19
1 -0.57
10 0.09
11 -0.15
12 -0.15
13 0.08
14 -0.15
15 0.08
17 0.36
2 -0.53
26 0.15
27 0.15
28 0.15
29 0.45
3 -0.53
30 0.45
4 -0.9
5 0.27
6 0.33
9 0.42

>  <PUBCHEM_EFFECTIVE_ROTOR_COUNT>  (1) 
4

>  <PUBCHEM_PHARMACOPHORE_FEATURES>  (1) 
7
1 1 acceptor
1 2 donor
1 3 donor
1 4 cation
1 4 donor
3 5 7 8 hydrophobe
6 10 11 12 13 14 15 rings

>  <PUBCHEM_HEAVY_ATOM_COUNT>  (1) 
15

>  <PUBCHEM_ATOM_DEF_STEREO_COUNT>  (1) 
0

>  <PUBCHEM_ATOM_UDEF_STEREO_COUNT>  (1) 
0

>  <PUBCHEM_BOND_DEF_STEREO_COUNT>  (1) 
0

>  <PUBCHEM_BOND_UDEF_STEREO_COUNT>  (1) 
0

>  <PUBCHEM_ISOTOPIC_ATOM_COUNT>  (1) 
0

>  <PUBCHEM_COMPONENT_COUNT>  (1) 
1

>  <PUBCHEM_CACTVS_TAUTO_COUNT>  (1) 
47

>  <PUBCHEM_CONFORMER_ID>  (1) 
0000211100000001

>  <PUBCHEM_MMFF94_ENERGY>  (1) 
29.2472

>  <PUBCHEM_FEATURE_SELFOVERLAP>  (1) 
35.524

>  <PUBCHEM_SHAPE_FINGERPRINT>  (1) 
10062212 137 18411131429194533135
10465860 250 18060697282207559152
10616163 171 18338801216624453302
12236239 1 18186804669407987502
13167823 11 18334856100247345554
13288520 33 18413673525868568351
13690532 89 18410009953109046287
14123238 8 18187365441517597110
14252887 29 17917721197248100582
15196674 1 18410575054973231006
15242433 33 18335423448326184814
15375358 24 17988926643598380174
15375462 189 18114458972815732410
15536298 74 18270961366380696552
17804303 29 18343021107490646873
17834072 33 18410294757033590628
18186145 218 14345802651641290564
19422 9 18259989292217026350
200 152 17846774122622597135
20281475 54 18333726923169458834
20645477 70 18261109630869753554
21267235 1 18338807796070777814
22485316 2 18408321073458200928
22646028 1 18333447630120543634
2297311 6 18059307508495649676
23175994 123 16988569012822064297
23402539 116 18131626790717177549
23463225 33 18409166589183614006
23559900 14 18201445719009518254
300161 21 18335133185835817556
3004659 81 18260831450280502582
42 15 18335420145317012098
4214541 1 18411419505520023556
4921388 177 15936702556745905091
5104073 3 18412545426743350584
559249 180 18335414609014834658
573450 72 18337102384990525186
7364860 26 18126847329161157024
77779 3 18410294718283763846

>  <PUBCHEM_SHAPE_MULTIPOLES>  (1) 
286.1
10.21
1.65
0.67
8.12
0.01
0.04
-1.42
0.12
-0.79
0.12
0.28
-0.09
-0.57

>  <PUBCHEM_SHAPE_SELFOVERLAP>  (1) 
587.344

>  <PUBCHEM_SHAPE_VOLUME>  (1) 
166

>  <PUBCHEM_COORDINATE_TYPE>  (1) 
2
5
10

$$$$
