8481
     RDKit          3D

 14 14  0  0  0  0  0  0  0  0999 V2000
    3.7089    0.3034   -1.8026 Cl  0  0  0  0  0  0  0  0  0  0  0  0
    3.2106    0.1752    0.1787 S   0  0  0  0  0  0  0  0  0  0  0  0
    3.8499   -1.0279    0.6781 O   0  0  0  0  0  0  0  0  0  0  0  0
    3.5034    1.4871    0.7260 O   0  0  0  0  0  0  0  0  0  0  0  0
   -3.5408    1.4993    0.0031 O   0  0  0  0  0  0  0  0  0  0  0  0
   -2.6539   -0.6847   -0.0359 N   0  0  0  0  0  0  0  0  0  0  0  0
    1.4844   -0.0782    0.1156 C   0  0  0  0  0  0  0  0  0  0  0  0
   -1.2741   -0.4826    0.0148 C   0  0  0  0  0  0  0  0  0  0  0  0
    0.6182    1.0152    0.1234 C   0  0  0  0  0  0  0  0  0  0  0  0
    0.9712   -1.3740    0.0574 C   0  0  0  0  0  0  0  0  0  0  0  0
   -0.7610    0.8131    0.0731 C   0  0  0  0  0  0  0  0  0  0  0  0
   -0.4081   -1.5762    0.0070 C   0  0  0  0  0  0  0  0  0  0  0  0
   -3.6699    0.2800   -0.0372 C   0  0  0  0  0  0  0  0  0  0  0  0
   -5.0388   -0.3498   -0.1014 C   0  0  0  0  0  0  0  0  0  0  0  0
  1  2  1  0
  2  3  2  0
  2  4  2  0
  2  7  1  0
  5 13  2  0
  6  8  1  0
  6 13  1  0
  7  9  2  0
  7 10  1  0
  8 11  2  0
  8 12  1  0
  9 11  1  0
 10 12  2  0
 13 14  1  0
M  END
>  <PUBCHEM_COMPOUND_CID>  (1) 
8481

>  <PUBCHEM_CONFORMER_RMSD>  (1) 
0.6

>  <PUBCHEM_CONFORMER_DIVERSEORDER>  (1) 
2
3
1
4

>  <PUBCHEM_MMFF94_PARTIAL_CHARGES>  (1) 
19
1 -0.19
10 -0.15
11 -0.15
12 -0.15
13 0.57
14 0.06
15 0.15
16 0.15
17 0.15
18 0.15
19 0.37
2 1.49
3 -0.65
4 -0.65
5 -0.57
6 -0.55
7 -0.01
8 0.12
9 -0.15

>  <PUBCHEM_EFFECTIVE_ROTOR_COUNT>  (1) 
3

>  <PUBCHEM_PHARMACOPHORE_FEATURES>  (1) 
3
1 5 acceptor
1 6 donor
6 7 8 9 10 11 12 rings

>  <PUBCHEM_HEAVY_ATOM_COUNT>  (1) 
14

>  <PUBCHEM_ATOM_DEF_STEREO_COUNT>  (1) 
0

>  <PUBCHEM_ATOM_UDEF_STEREO_COUNT>  (1) 
0

>  <PUBCHEM_BOND_DEF_STEREO_COUNT>  (1) 
0

>  <PUBCHEM_BOND_UDEF_STEREO_COUNT>  (1) 
0

>  <PUBCHEM_ISOTOPIC_ATOM_COUNT>  (1) 
0

>  <PUBCHEM_COMPONENT_COUNT>  (1) 
1

>  <PUBCHEM_CACTVS_TAUTO_COUNT>  (1) 
2

>  <PUBCHEM_CONFORMER_ID>  (1) 
0000212100000002

>  <PUBCHEM_MMFF94_ENERGY>  (1) 
27.791

>  <PUBCHEM_FEATURE_SELFOVERLAP>  (1) 
15.223

>  <PUBCHEM_SHAPE_FINGERPRINT>  (1) 
11471102 20 18411131441846982126
13081056 2 18343019999605349329
13380535 76 18410011031241211915
13705890 14 16128658565404004558
13760787 19 17531252798069661722
14325111 11 18411697698930528705
14911166 2 18342185478874882022
14993402 34 18261682540086988772
16945 1 18201730539211864122
18186145 218 18131075934753468536
19026448 4 16128656336205188323
19026448 5 16515685588696994267
200 152 15482681147679884246
20645476 183 17968955213350167742
20645477 70 16773809082123405886
212847 35 18334295357738166348
23402539 116 18059562581717418124
23402655 69 18341884148966105469
23463225 33 18261951856285616874
23559900 14 18201444709839838028
2748010 2 18052539064642719394
4047638 21 18343865541290054464
4990 188 17918280835137989710
5104073 3 18409446956153624273
537710 114 18335424573132960236
633830 44 18060423508001851525
69090 78 17917987313005042423
7364860 26 18197213642408495314

>  <PUBCHEM_SHAPE_MULTIPOLES>  (1) 
271.24
8.62
1.43
0.92
4.91
0.07
-0.37
-1.17
-0.87
-0.13
0.15
-1.17
-0.1
-0.11

>  <PUBCHEM_SHAPE_SELFOVERLAP>  (1) 
538.218

>  <PUBCHEM_SHAPE_VOLUME>  (1) 
161.8

>  <PUBCHEM_COORDINATE_TYPE>  (1) 
2
5
10

$$$$
