8482
     RDKit          3D

 14 14  0  0  0  0  0  0  0  0999 V2000
    3.2249    0.1866    0.0926 S   0  0  0  0  0  0  0  0  0  0  0  0
    3.4843    1.4937    0.6799 O   0  0  0  0  0  0  0  0  0  0  0  0
    3.8597   -0.9975    0.6546 O   0  0  0  0  0  0  0  0  0  0  0  0
   -3.5311    1.4949   -0.0029 O   0  0  0  0  0  0  0  0  0  0  0  0
   -2.6404   -0.6879   -0.0111 N   0  0  0  0  0  0  0  0  0  0  0  0
    3.5736    0.2543   -1.5788 N   0  0  0  0  0  0  0  0  0  0  0  0
    1.4985   -0.0711    0.0622 C   0  0  0  0  0  0  0  0  0  0  0  0
   -1.2604   -0.4824    0.0135 C   0  0  0  0  0  0  0  0  0  0  0  0
    0.6303    1.0208    0.0613 C   0  0  0  0  0  0  0  0  0  0  0  0
    0.9871   -1.3687    0.0387 C   0  0  0  0  0  0  0  0  0  0  0  0
   -0.7491    0.8152    0.0371 C   0  0  0  0  0  0  0  0  0  0  0  0
   -0.3924   -1.5743    0.0144 C   0  0  0  0  0  0  0  0  0  0  0  0
   -3.6583    0.2749   -0.0161 C   0  0  0  0  0  0  0  0  0  0  0  0
   -5.0267   -0.3585   -0.0456 C   0  0  0  0  0  0  0  0  0  0  0  0
  1  2  2  0
  1  3  2  0
  1  6  1  0
  1  7  1  0
  4 13  2  0
  5  8  1  0
  5 13  1  0
  7  9  2  0
  7 10  1  0
  8 11  2  0
  8 12  1  0
  9 11  1  0
 10 12  2  0
 13 14  1  0
M  END
>  <PUBCHEM_COMPOUND_CID>  (1) 
8482

>  <PUBCHEM_CONFORMER_RMSD>  (1) 
0.6

>  <PUBCHEM_CONFORMER_DIVERSEORDER>  (1) 
2
1
3
4

>  <PUBCHEM_MMFF94_PARTIAL_CHARGES>  (1) 
21
1 1.45
10 -0.15
11 -0.15
12 -0.15
13 0.57
14 0.06
15 0.15
16 0.15
17 0.15
18 0.15
19 0.37
2 -0.65
20 0.42
21 0.42
3 -0.65
4 -0.57
5 -0.55
6 -0.98
7 -0.01
8 0.12
9 -0.15

>  <PUBCHEM_EFFECTIVE_ROTOR_COUNT>  (1) 
3

>  <PUBCHEM_PHARMACOPHORE_FEATURES>  (1) 
6
1 2 acceptor
1 3 acceptor
1 4 acceptor
1 5 donor
1 6 donor
6 7 8 9 10 11 12 rings

>  <PUBCHEM_HEAVY_ATOM_COUNT>  (1) 
14

>  <PUBCHEM_ATOM_DEF_STEREO_COUNT>  (1) 
0

>  <PUBCHEM_ATOM_UDEF_STEREO_COUNT>  (1) 
0

>  <PUBCHEM_BOND_DEF_STEREO_COUNT>  (1) 
0

>  <PUBCHEM_BOND_UDEF_STEREO_COUNT>  (1) 
0

>  <PUBCHEM_ISOTOPIC_ATOM_COUNT>  (1) 
0

>  <PUBCHEM_COMPONENT_COUNT>  (1) 
1

>  <PUBCHEM_CACTVS_TAUTO_COUNT>  (1) 
2

>  <PUBCHEM_CONFORMER_ID>  (1) 
0000212200000002

>  <PUBCHEM_MMFF94_ENERGY>  (1) 
19.6494

>  <PUBCHEM_FEATURE_SELFOVERLAP>  (1) 
30.465

>  <PUBCHEM_SHAPE_FINGERPRINT>  (1) 
10219947 1 17603307046269660439
11401426 45 18343012298549522579
11471102 20 18411132541363884702
11543360 7 16056588906697596261
13081056 2 18342458149168824025
13380535 76 18409449180799418387
13705890 14 16128658565377624310
13760787 19 17530971318813814530
14325111 11 18411416223953824513
14911166 2 18341904003903452614
14993402 34 18334583459527577124
16945 1 18201730539159097106
18186145 218 18130794459771496104
19026448 4 16128656340500181623
19026448 5 16370725971417131627
20645476 183 17896616144335522670
20645477 70 16988574485048210574
212847 35 18334858307691600620
23402539 116 18131058329597963852
23402655 69 18341602673989394821
23463225 33 18261670381308906194
23559900 14 18273219725099656988
2748010 2 18051976114668186042
366044 4 18411135857079027027
4047638 21 18272090521724634208
4990 188 17917717885131853366
5104073 3 18409166580678037353
53655031 270 18411416168135106579
537710 114 18408045117076830188
53812653 166 18342170098322746952
633830 44 18131635573281946957
69090 78 17917988412548305727
7364860 26 18196933266938137670

>  <PUBCHEM_SHAPE_MULTIPOLES>  (1) 
264.39
8.38
1.43
0.79
4.45
0.04
-0.2
-1.04
-0.2
-0.17
0.13
-0.71
-0.04
-0.03

>  <PUBCHEM_SHAPE_SELFOVERLAP>  (1) 
533.288

>  <PUBCHEM_SHAPE_VOLUME>  (1) 
154.5

>  <PUBCHEM_COORDINATE_TYPE>  (1) 
2
5
10

$$$$
