849
     RDKit          3D

  9  9  0  0  1  0  0  0  0  0999 V2000
    2.4356   -1.0481   -0.3273 O   0  0  0  0  0  0  0  0  0  0  0  0
    2.2363    1.0485    0.5446 O   0  0  0  0  0  0  0  0  0  0  0  0
   -0.3259    1.2187   -0.0680 N   0  0  0  0  0  0  0  0  0  0  0  0
   -0.3361   -1.2309    0.3015 C   0  0  0  0  0  0  0  0  0  0  0  0
    0.3139   -0.0494   -0.4197 C   0  0  0  0  0  0  0  0  0  0  0  0
   -1.8361   -1.2819    0.0288 C   0  0  0  0  0  0  0  0  0  0  0  0
   -2.4794    0.0672    0.3333 C   0  0  0  0  0  0  0  0  0  0  0  0
   -1.7545    1.2022   -0.3874 C   0  0  0  0  0  0  0  0  0  0  0  0
    1.7462    0.0738   -0.0058 C   0  0  0  0  0  0  0  0  0  0  0  0
  1  9  1  0
  2  9  2  0
  3  5  1  0
  3  8  1  0
  4  5  1  0
  4  6  1  0
  5  9  1  0
  6  7  1  0
  7  8  1  0
M  END
>  <PUBCHEM_COMPOUND_CID>  (1) 
849

>  <PUBCHEM_CONFORMER_RMSD>  (1) 
0.4

>  <PUBCHEM_CONFORMER_DIVERSEORDER>  (1) 
1
8
6
3
5
7
4
2
9

>  <PUBCHEM_MMFF94_PARTIAL_CHARGES>  (1) 
8
1 -0.65
19 0.36
2 -0.57
20 0.5
3 -0.9
5 0.33
8 0.27
9 0.66

>  <PUBCHEM_EFFECTIVE_ROTOR_COUNT>  (1) 
2.2

>  <PUBCHEM_PHARMACOPHORE_FEATURES>  (1) 
6
1 1 acceptor
1 2 acceptor
1 3 cation
1 3 donor
3 1 2 9 anion
6 3 4 5 6 7 8 rings

>  <PUBCHEM_HEAVY_ATOM_COUNT>  (1) 
9

>  <PUBCHEM_ATOM_DEF_STEREO_COUNT>  (1) 
0

>  <PUBCHEM_ATOM_UDEF_STEREO_COUNT>  (1) 
1

>  <PUBCHEM_BOND_DEF_STEREO_COUNT>  (1) 
0

>  <PUBCHEM_BOND_UDEF_STEREO_COUNT>  (1) 
0

>  <PUBCHEM_ISOTOPIC_ATOM_COUNT>  (1) 
0

>  <PUBCHEM_COMPONENT_COUNT>  (1) 
1

>  <PUBCHEM_CACTVS_TAUTO_COUNT>  (1) 
1

>  <PUBCHEM_CONFORMER_ID>  (1) 
0000035100000001

>  <PUBCHEM_MMFF94_ENERGY>  (1) 
1.4019

>  <PUBCHEM_FEATURE_SELFOVERLAP>  (1) 
30.502

>  <PUBCHEM_SHAPE_FINGERPRINT>  (1) 
10857977 72 18264481956936834689
14325111 11 18411136913814801733
16714656 1 18335144176319472447
19973954 147 18412827992678858688
20645464 45 18343294877538433314
21040471 1 18262518074534986157
23552423 10 18186805794061911894
2748010 2 18409730668465358511
29004967 10 18265618851838635658
369184 2 18343299279763906035
5084963 1 18188217506751449989

>  <PUBCHEM_SHAPE_MULTIPOLES>  (1) 
168.5
3.46
1.48
0.68
0.77
0.04
0
0.01
-0.2
-0.27
0
0
-0.02
0.29

>  <PUBCHEM_SHAPE_SELFOVERLAP>  (1) 
331.343

>  <PUBCHEM_SHAPE_VOLUME>  (1) 
99.9

>  <PUBCHEM_COORDINATE_TYPE>  (1) 
2
5
10

$$$$
