850
     RDKit          3D

 14 13  0  0  1  0  0  0  0  0999 V2000
   -3.5241   -0.2673   -0.0051 P   0  0  0  0  0  0  0  0  0  0  0  0
   -1.9624   -0.5858   -0.2696 O   0  0  0  0  0  0  0  0  0  0  0  0
    0.4950   -0.1661   -1.4915 O   0  0  0  0  0  0  0  0  0  0  0  0
    1.3178    1.9972    0.1893 O   0  0  0  0  0  0  0  0  0  0  0  0
    3.6637    0.9571   -0.4711 O   0  0  0  0  0  0  0  0  0  0  0  0
    4.6337   -1.4743    0.0597 O   0  0  0  0  0  0  0  0  0  0  0  0
   -3.6798    1.2836   -0.4358 O   0  0  0  0  0  0  0  0  0  0  0  0
   -3.6074   -0.2152    1.6090 O   0  0  0  0  0  0  0  0  0  0  0  0
   -4.4868   -1.2146   -0.6592 O   0  0  0  0  0  0  0  0  0  0  0  0
    0.4035   -0.2217   -0.0653 C   0  0  0  0  0  0  0  0  0  0  0  0
    1.5057    0.6394    0.5614 C   0  0  0  0  0  0  0  0  0  0  0  0
   -0.9900    0.2716    0.3201 C   0  0  0  0  0  0  0  0  0  0  0  0
    2.9049    0.2006    0.1360 C   0  0  0  0  0  0  0  0  0  0  0  0
    3.3261   -1.2044    0.5222 C   0  0  0  0  0  0  0  0  0  0  0  0
  1  2  1  0
  1  7  1  0
  1  8  1  0
  1  9  2  0
  2 12  1  0
  3 10  1  0
  4 11  1  0
  5 13  2  0
  6 14  1  0
 10 11  1  0
 10 12  1  0
 11 13  1  0
 13 14  1  0
M  END
>  <PUBCHEM_COMPOUND_CID>  (1) 
850

>  <PUBCHEM_CONFORMER_RMSD>  (1) 
0.8

>  <PUBCHEM_CONFORMER_DIVERSEORDER>  (1) 
1
377
273
127
606
366
469
61
517
2
32
308
328
493
25
368
425
589
396
197
378
146
217
94
153
9
298
315
516
358
485
84
3
181
268
68
85
39
489
82
12
450
203
125
574
258
58
432
93
116
33
523
230
43
76
196
563
23
69
361
316
131
13
409
326
145
276
152
500
572
184
15
533
14
62
56
202
191
236
419
19
7
504
204
337
593
20
505
170
265
347
283
445
437
79
350
11
246
17
182
251
349
322
591
536
595
508
228
168
78
340
319
254
183
72
253
371
83
155
356
208
37
225
10
129
74
257
118
372
311
558
18
306
90
389
512
476
104
401
481
169
6
172
198
139
418
304
501

>  <PUBCHEM_MMFF94_PARTIAL_CHARGES>  (1) 
19
1 1.51
10 0.28
11 0.34
12 0.28
13 0.45
14 0.34
2 -0.55
21 0.4
22 0.4
23 0.4
24 0.5
25 0.5
3 -0.68
4 -0.68
5 -0.57
6 -0.68
7 -0.77
8 -0.77
9 -0.7

>  <PUBCHEM_EFFECTIVE_ROTOR_COUNT>  (1) 
6

>  <PUBCHEM_PHARMACOPHORE_FEATURES>  (1) 
11
1 3 acceptor
1 3 donor
1 4 acceptor
1 4 donor
1 5 acceptor
1 6 acceptor
1 6 donor
1 7 acceptor
1 8 acceptor
1 9 acceptor
4 1 7 8 9 anion

>  <PUBCHEM_HEAVY_ATOM_COUNT>  (1) 
14

>  <PUBCHEM_ATOM_DEF_STEREO_COUNT>  (1) 
0

>  <PUBCHEM_ATOM_UDEF_STEREO_COUNT>  (1) 
2

>  <PUBCHEM_BOND_DEF_STEREO_COUNT>  (1) 
0

>  <PUBCHEM_BOND_UDEF_STEREO_COUNT>  (1) 
0

>  <PUBCHEM_ISOTOPIC_ATOM_COUNT>  (1) 
0

>  <PUBCHEM_COMPONENT_COUNT>  (1) 
1

>  <PUBCHEM_CACTVS_TAUTO_COUNT>  (1) 
8

>  <PUBCHEM_CONFORMER_ID>  (1) 
0000035200000001

>  <PUBCHEM_MMFF94_ENERGY>  (1) 
-19.1045

>  <PUBCHEM_FEATURE_SELFOVERLAP>  (1) 
55.884

>  <PUBCHEM_SHAPE_FINGERPRINT>  (1) 
10219947 1 18343866619173903852
124424 183 18410289181912865121
12916754 54 18341609378201105019
12932764 1 18341330088782570737
13690532 89 18343298171483216423
14144814 61 18060139846891750059
14251717 144 18409162199553405898
14252887 29 18201439134756360658
17834072 33 18412261770408406526
17834074 16 17967253104530150818
18186145 218 17988927798760011809
190213 19 16877662378850814863
19026448 4 17748828531113228377
1986462 14 18409727353140931181
20645477 70 18335697226484520478
20871998 22 18129385891551822278
22485316 2 18410288116708104834
2306618 200 18059857221534133209
23402539 116 17917983967684357213
4047638 21 11024110970878938614
42 15 18342457032282141739
449060 50 17823143478742761620

>  <PUBCHEM_SHAPE_MULTIPOLES>  (1) 
245.01
8.98
1.38
0.97
2.37
0.25
-0.06
-2.69
-0.16
-0.7
0.01
0.52
-0.07
-0.22

>  <PUBCHEM_SHAPE_SELFOVERLAP>  (1) 
456.732

>  <PUBCHEM_SHAPE_VOLUME>  (1) 
153.2

>  <PUBCHEM_COORDINATE_TYPE>  (1) 
2
5
10

$$$$
