8501
     RDKit          3D

 10 10  0  0  0  0  0  0  0  0999 V2000
    3.8095   -0.1321   -0.0007 Cl  0  0  0  0  0  0  0  0  0  0  0  0
   -3.1392   -1.3292   -0.0011 Cl  0  0  0  0  0  0  0  0  0  0  0  0
   -2.7035    1.2604   -0.0010 O   0  0  0  0  0  0  0  0  0  0  0  0
   -0.6964    0.0739    0.0014 C   0  0  0  0  0  0  0  0  0  0  0  0
    0.0557    1.2486    0.0008 C   0  0  0  0  0  0  0  0  0  0  0  0
   -0.0550   -1.1648    0.0010 C   0  0  0  0  0  0  0  0  0  0  0  0
    1.4492    1.1847   -0.0002 C   0  0  0  0  0  0  0  0  0  0  0  0
    1.3384   -1.2287    0.0000 C   0  0  0  0  0  0  0  0  0  0  0  0
    2.0905   -0.0540   -0.0006 C   0  0  0  0  0  0  0  0  0  0  0  0
   -2.1492    0.1413    0.0003 C   0  0  0  0  0  0  0  0  0  0  0  0
  1  9  1  0
  2 10  1  0
  3 10  2  0
  4  5  2  0
  4  6  1  0
  4 10  1  0
  5  7  1  0
  6  8  2  0
  7  9  2  0
  8  9  1  0
M  END
>  <PUBCHEM_COMPOUND_CID>  (1) 
8501

>  <PUBCHEM_CONFORMER_RMSD>  (1) 
0.4

>  <PUBCHEM_CONFORMER_DIVERSEORDER>  (1) 
1
2

>  <PUBCHEM_MMFF94_PARTIAL_CHARGES>  (1) 
14
1 -0.18
10 0.69
11 0.15
12 0.15
13 0.15
14 0.15
2 -0.21
3 -0.57
4 0.09
5 -0.15
6 -0.15
7 -0.15
8 -0.15
9 0.18

>  <PUBCHEM_EFFECTIVE_ROTOR_COUNT>  (1) 
1

>  <PUBCHEM_PHARMACOPHORE_FEATURES>  (1) 
1
6 4 5 6 7 8 9 rings

>  <PUBCHEM_HEAVY_ATOM_COUNT>  (1) 
10

>  <PUBCHEM_ATOM_DEF_STEREO_COUNT>  (1) 
0

>  <PUBCHEM_ATOM_UDEF_STEREO_COUNT>  (1) 
0

>  <PUBCHEM_BOND_DEF_STEREO_COUNT>  (1) 
0

>  <PUBCHEM_BOND_UDEF_STEREO_COUNT>  (1) 
0

>  <PUBCHEM_ISOTOPIC_ATOM_COUNT>  (1) 
0

>  <PUBCHEM_COMPONENT_COUNT>  (1) 
1

>  <PUBCHEM_CACTVS_TAUTO_COUNT>  (1) 
1

>  <PUBCHEM_CONFORMER_ID>  (1) 
0000213500000001

>  <PUBCHEM_MMFF94_ENERGY>  (1) 
24.6055

>  <PUBCHEM_FEATURE_SELFOVERLAP>  (1) 
5.074

>  <PUBCHEM_SHAPE_FINGERPRINT>  (1) 
10857977 72 18411691101860768707
12032990 46 18412550916017671502
12897270 3 18409444817175468487
12932764 1 17458620086393400853
14128692 85 18341896337254966759
14325111 11 18410855473261100452
16945 1 18338516331089528068
193761 8 17473826126331890852
20201158 50 18408322198497357763
21040471 1 18338517555250198432
21293036 1 18409454717148847958
23235685 24 18410569565983615880
23380061 330 18342171197892526702
23402655 69 18196637524644351893
23552423 10 18333453140194293271
2748010 2 18339075011766524380
29004967 10 18409733932524419920
5084963 1 18270965746914619873
528886 8 18411131403197596833
8809292 202 18042690683475257531

>  <PUBCHEM_SHAPE_MULTIPOLES>  (1) 
203.67
5.18
1.51
0.62
0.54
0.04
0
-0.79
0
-0.49
0
0.03
-0.02
0

>  <PUBCHEM_SHAPE_SELFOVERLAP>  (1) 
406.354

>  <PUBCHEM_SHAPE_VOLUME>  (1) 
120.7

>  <PUBCHEM_COORDINATE_TYPE>  (1) 
2
5
10

$$$$
