8509
     RDKit          3D

 18 20  0  0  0  0  0  0  0  0999 V2000
    2.6548    2.4696   -0.0012 Cl  0  0  0  0  0  0  0  0  0  0  0  0
   -0.0749    2.4667    0.0008 O   0  0  0  0  0  0  0  0  0  0  0  0
   -0.9087   -2.8097    0.0006 O   0  0  0  0  0  0  0  0  0  0  0  0
    0.9156    0.2972   -0.0005 C   0  0  0  0  0  0  0  0  0  0  0  0
    0.6796   -1.0792   -0.0008 C   0  0  0  0  0  0  0  0  0  0  0  0
   -1.5939    0.7273   -0.0005 C   0  0  0  0  0  0  0  0  0  0  0  0
   -1.8298   -0.6490   -0.0004 C   0  0  0  0  0  0  0  0  0  0  0  0
   -0.2125    1.2508   -0.0007 C   0  0  0  0  0  0  0  0  0  0  0  0
   -0.7018   -1.6026   -0.0004 C   0  0  0  0  0  0  0  0  0  0  0  0
    2.2297    0.7802    0.0001 C   0  0  0  0  0  0  0  0  0  0  0  0
    3.3010   -0.1135    0.0003 C   0  0  0  0  0  0  0  0  0  0  0  0
    1.7577   -1.9725   -0.0007 C   0  0  0  0  0  0  0  0  0  0  0  0
    3.0655   -1.4869   -0.0001 C   0  0  0  0  0  0  0  0  0  0  0  0
   -2.6719    1.6206   -0.0001 C   0  0  0  0  0  0  0  0  0  0  0  0
   -3.1439   -1.1321    0.0001 C   0  0  0  0  0  0  0  0  0  0  0  0
    4.7286    0.3368    0.0019 C   0  0  0  0  0  0  0  0  0  0  0  0
   -3.9798    1.1350    0.0006 C   0  0  0  0  0  0  0  0  0  0  0  0
   -4.2153   -0.2385    0.0007 C   0  0  0  0  0  0  0  0  0  0  0  0
  1 10  1  0
  2  8  2  0
  3  9  2  0
  4  5  2  0
  4  8  1  0
  4 10  1  0
  5  9  1  0
  5 12  1  0
  6  7  2  0
  6  8  1  0
  6 14  1  0
  7  9  1  0
  7 15  1  0
 10 11  2  0
 11 13  1  0
 11 16  1  0
 12 13  2  0
 14 17  2  0
 15 18  2  0
 17 18  1  0
M  END
>  <PUBCHEM_COMPOUND_CID>  (1) 
8509

>  <PUBCHEM_CONFORMER_RMSD>  (1) 
0.4

>  <PUBCHEM_CONFORMER_DIVERSEORDER>  (1) 
1

>  <PUBCHEM_MMFF94_PARTIAL_CHARGES>  (1) 
24
1 -0.18
10 0.18
11 -0.14
12 -0.15
13 -0.15
14 -0.15
15 -0.15
16 0.14
17 -0.15
18 -0.15
19 0.15
2 -0.57
20 0.15
21 0.15
22 0.15
26 0.15
27 0.15
3 -0.57
4 0.09
5 0.09
6 0.09
7 0.09
8 0.4
9 0.4

>  <PUBCHEM_EFFECTIVE_ROTOR_COUNT>  (1) 
0

>  <PUBCHEM_PHARMACOPHORE_FEATURES>  (1) 
5
1 2 acceptor
1 3 acceptor
6 4 5 10 11 12 13 rings
6 4 5 6 7 8 9 rings
6 6 7 14 15 17 18 rings

>  <PUBCHEM_HEAVY_ATOM_COUNT>  (1) 
18

>  <PUBCHEM_ATOM_DEF_STEREO_COUNT>  (1) 
0

>  <PUBCHEM_ATOM_UDEF_STEREO_COUNT>  (1) 
0

>  <PUBCHEM_BOND_DEF_STEREO_COUNT>  (1) 
0

>  <PUBCHEM_BOND_UDEF_STEREO_COUNT>  (1) 
0

>  <PUBCHEM_ISOTOPIC_ATOM_COUNT>  (1) 
0

>  <PUBCHEM_COMPONENT_COUNT>  (1) 
1

>  <PUBCHEM_CACTVS_TAUTO_COUNT>  (1) 
1

>  <PUBCHEM_CONFORMER_ID>  (1) 
0000213D00000001

>  <PUBCHEM_MMFF94_ENERGY>  (1) 
59.5301

>  <PUBCHEM_FEATURE_SELFOVERLAP>  (1) 
25.414

>  <PUBCHEM_SHAPE_FINGERPRINT>  (1) 
10411042 1 16825589182433555523
10608611 8 18409727365593511061
10616163 171 18339926029492814606
10967382 1 18410573968050716228
11132069 177 18412539894767333321
11471102 20 18410570652299073102
12011746 2 18411420588004509972
12403814 3 17531242859446416445
13132413 78 18412263960356775237
13140716 1 18266170811461318152
13221675 6 18410573976709404494
13380535 76 18411700984675832374
13583140 156 16950550104273332305
138480 1 17906453221250191202
13862211 1 18410568470893828778
13897977 150 18410853239809599773
14790565 3 18410587183750339564
15196674 1 18410856516690162087
15230672 131 13218751067132689059
15309172 13 18411709772532107747
15442244 35 18267021644160980074
15536298 74 18343021051861741854
16945 1 18266741474843725799
18186145 218 18342462486922152285
193761 8 17978510059278240935
19591789 44 18410294739384437227
200 152 18131343108069234829
20510252 161 18272089344582140864
21029758 11 18343015605933069745
21267235 1 18410865372976328791
21501502 16 18267581488752754638
221490 88 18336554892555947186
2334 1 18410855460413037379
23402539 116 18343292673956589982
23402655 69 18342451496343539085
23463225 33 18409166584503375349
23559900 14 18343019970141847990
2748010 2 18410013204436147751
335352 9 18122624955153811862
34934 24 18410567379544724786
350125 39 18410015429414310497
474 4 17386575807255517236
5104073 3 18409729521587791450
537710 114 18410579474156825613
53812653 166 18341890788051770888
58051976 378 18412823555914332141
69090 78 18412822495173389367
7364860 26 18413388761073762688
8809292 202 18261677081141500466
9709674 26 18412268345545030918
9981440 41 17541659860864361880

>  <PUBCHEM_SHAPE_MULTIPOLES>  (1) 
360.56
7.31
2.61
0.61
0.03
0.02
0
1.04
0
-0.44
0
-0.01
0.01
0

>  <PUBCHEM_SHAPE_SELFOVERLAP>  (1) 
804.801

>  <PUBCHEM_SHAPE_VOLUME>  (1) 
192.4

>  <PUBCHEM_COORDINATE_TYPE>  (1) 
2
5
10

$$$$
