8510
     RDKit          3D

 20 22  0  0  0  0  0  0  0  0999 V2000
   -4.1933   -1.6825    0.0002 Cl  0  0  0  0  0  0  0  0  0  0  0  0
    0.8290    2.2139   -0.0003 O   0  0  0  0  0  0  0  0  0  0  0  0
   -1.5771   -2.5555    0.0033 O   0  0  0  0  0  0  0  0  0  0  0  0
    3.5381    1.6280   -1.0957 O   0  0  0  0  0  0  0  0  0  0  0  0
    3.5399    1.6233    1.0996 O   0  0  0  0  0  0  0  0  0  0  0  0
    3.2205    1.1132    0.0011 N   0  0  0  0  0  0  0  0  0  0  0  0
    1.0692   -0.1459   -0.0001 C   0  0  0  0  0  0  0  0  0  0  0  0
    0.4157   -1.3800   -0.0002 C   0  0  0  0  0  0  0  0  0  0  0  0
   -1.1811    1.0456    0.0002 C   0  0  0  0  0  0  0  0  0  0  0  0
   -1.8344   -0.1886    0.0007 C   0  0  0  0  0  0  0  0  0  0  0  0
    0.2947    1.1121    0.0001 C   0  0  0  0  0  0  0  0  0  0  0  0
   -1.0600   -1.4464    0.0008 C   0  0  0  0  0  0  0  0  0  0  0  0
    2.4683   -0.0966   -0.0010 C   0  0  0  0  0  0  0  0  0  0  0  0
    1.1614   -2.5649   -0.0015 C   0  0  0  0  0  0  0  0  0  0  0  0
   -1.9267    2.2305   -0.0007 C   0  0  0  0  0  0  0  0  0  0  0  0
   -3.2336   -0.2377    0.0003 C   0  0  0  0  0  0  0  0  0  0  0  0
    3.2076   -1.2797   -0.0022 C   0  0  0  0  0  0  0  0  0  0  0  0
    2.5555   -2.5113   -0.0025 C   0  0  0  0  0  0  0  0  0  0  0  0
   -3.3209    2.1769   -0.0013 C   0  0  0  0  0  0  0  0  0  0  0  0
   -3.9729    0.9455   -0.0007 C   0  0  0  0  0  0  0  0  0  0  0  0
  1 16  1  0
  2 11  2  0
  3 12  2  0
  4  6  1  0
  5  6  2  0
  6 13  1  0
  7  8  2  0
  7 11  1  0
  7 13  1  0
  8 12  1  0
  8 14  1  0
  9 10  2  0
  9 11  1  0
  9 15  1  0
 10 12  1  0
 10 16  1  0
 13 17  2  0
 14 18  2  0
 15 19  2  0
 16 20  2  0
 17 18  1  0
 19 20  1  0
M  CHG  2   4  -1   6   1
M  END
>  <PUBCHEM_COMPOUND_CID>  (1) 
8510

>  <PUBCHEM_CONFORMER_RMSD>  (1) 
0.6

>  <PUBCHEM_CONFORMER_DIVERSEORDER>  (1) 
1

>  <PUBCHEM_MMFF94_PARTIAL_CHARGES>  (1) 
26
1 -0.18
10 0.09
11 0.4
12 0.4
13 0.13
14 -0.15
15 -0.15
16 0.18
17 -0.15
18 -0.15
19 -0.15
2 -0.57
20 -0.15
21 0.15
22 0.15
23 0.15
24 0.15
25 0.15
26 0.15
3 -0.57
4 -0.52
5 -0.52
6 0.91
7 0.09
8 0.09
9 0.09

>  <PUBCHEM_EFFECTIVE_ROTOR_COUNT>  (1) 
1

>  <PUBCHEM_PHARMACOPHORE_FEATURES>  (1) 
8
1 2 acceptor
1 3 acceptor
1 4 acceptor
1 4 anion
1 5 acceptor
6 7 8 13 14 17 18 rings
6 7 8 9 10 11 12 rings
6 9 10 15 16 19 20 rings

>  <PUBCHEM_HEAVY_ATOM_COUNT>  (1) 
20

>  <PUBCHEM_ATOM_DEF_STEREO_COUNT>  (1) 
0

>  <PUBCHEM_ATOM_UDEF_STEREO_COUNT>  (1) 
0

>  <PUBCHEM_BOND_DEF_STEREO_COUNT>  (1) 
0

>  <PUBCHEM_BOND_UDEF_STEREO_COUNT>  (1) 
0

>  <PUBCHEM_ISOTOPIC_ATOM_COUNT>  (1) 
0

>  <PUBCHEM_COMPONENT_COUNT>  (1) 
1

>  <PUBCHEM_CACTVS_TAUTO_COUNT>  (1) 
1

>  <PUBCHEM_CONFORMER_ID>  (1) 
0000213E00000001

>  <PUBCHEM_MMFF94_ENERGY>  (1) 
71.7505

>  <PUBCHEM_FEATURE_SELFOVERLAP>  (1) 
40.723

>  <PUBCHEM_SHAPE_FINGERPRINT>  (1) 
10411042 1 16177070789000265319
10608611 8 18338795615675083337
10616163 171 18410859879750067575
10863032 1 18340768156852378177
10967382 1 18338517546507205093
10980938 120 18410013234337433954
1100329 8 15672102450870051435
11132069 177 18337384950873117601
11578080 2 17459451295608982670
11680986 33 18409453561481099763
12173636 292 18411695457406207733
13140716 1 18267019453627270187
14178342 30 18338504339767860192
14223421 5 18410855438864419387
14787075 74 17629190795449356977
14790565 3 17905060487952374053
14866123 147 15966535202153068490
15196674 1 18410575072152768871
15442244 35 18266458702602476867
15536298 74 18342174427749988310
16945 1 18338799030147703365
17492 89 18410292476243309435
18186145 218 18266179439607627461
19591789 44 18411140212196996591
20510252 161 18343303686648408385
20691752 17 17603588491266054395
20739085 24 18048907129003177369
20905425 154 18341898501834244015
21267235 1 18339089181169842231
21501502 16 18410856525438430191
221490 88 18337680719385295538
2334 1 18410856516874758925
23366157 5 18041564633376187578
23463225 33 18265333902217545151
23558518 356 18261115162460148123
23559900 14 18197773311164768330
238 59 17105617308830899165
2748010 2 18337674088113519927
335352 9 18050286964329049303
350125 39 18338240357876207338
474 4 17967540081554886396
5104073 3 18410575059336485195
7097593 13 17682384863159059739
7364860 26 18270115700283909802
9709674 26 18411422769600645255
9981440 41 18262797514166684594

>  <PUBCHEM_SHAPE_MULTIPOLES>  (1) 
385
6.99
3.11
0.69
1.39
0.47
0
-0.83
0
-0.3
0
-0.27
-0.15
0

>  <PUBCHEM_SHAPE_SELFOVERLAP>  (1) 
862.512

>  <PUBCHEM_SHAPE_VOLUME>  (1) 
204

>  <PUBCHEM_COORDINATE_TYPE>  (1) 
2
5
10

$$$$
