852
     RDKit          3D

 10  9  0  0  1  0  0  0  0  0999 V2000
    1.7758    1.1878   -1.1833 O   0  0  0  0  0  0  0  0  0  0  0  0
   -1.2129    1.6151    0.8488 O   0  0  0  0  0  0  0  0  0  0  0  0
    1.9189    0.7822    1.0439 O   0  0  0  0  0  0  0  0  0  0  0  0
   -2.3170    0.6228   -0.8669 O   0  0  0  0  0  0  0  0  0  0  0  0
   -1.5774   -1.8113    0.1273 N   0  0  0  0  0  0  0  0  0  0  0  0
    0.6413   -0.7543   -0.3592 C   0  0  0  0  0  0  0  0  0  0  0  0
   -0.6971   -0.6803    0.4148 C   0  0  0  0  0  0  0  0  0  0  0  0
    1.4680   -1.9917   -0.0033 C   0  0  0  0  0  0  0  0  0  0  0  0
    1.4991    0.4707   -0.0631 C   0  0  0  0  0  0  0  0  0  0  0  0
   -1.4986    0.5590    0.0410 C   0  0  0  0  0  0  0  0  0  0  0  0
  1  9  1  0
  2 10  1  0
  3  9  2  0
  4 10  2  0
  5  7  1  0
  6  7  1  0
  6  8  1  0
  6  9  1  0
  7 10  1  0
M  END
>  <PUBCHEM_COMPOUND_CID>  (1) 
852

>  <PUBCHEM_CONFORMER_RMSD>  (1) 
0.6

>  <PUBCHEM_CONFORMER_DIVERSEORDER>  (1) 
3
26
18
23
22
1
9
32
15
7
27
29
16
14
2
11
33
4
13
34
10
12
6
25
31
17
20
28
8
5
30
35
19
21
24

>  <PUBCHEM_MMFF94_PARTIAL_CHARGES>  (1) 
13
1 -0.65
10 0.66
16 0.36
17 0.36
18 0.5
19 0.5
2 -0.65
3 -0.57
4 -0.57
5 -0.99
6 0.06
7 0.33
9 0.66

>  <PUBCHEM_EFFECTIVE_ROTOR_COUNT>  (1) 
3

>  <PUBCHEM_PHARMACOPHORE_FEATURES>  (1) 
9
1 1 acceptor
1 2 acceptor
1 3 acceptor
1 4 acceptor
1 5 cation
1 5 donor
1 8 hydrophobe
3 1 3 9 anion
3 2 4 10 anion

>  <PUBCHEM_HEAVY_ATOM_COUNT>  (1) 
10

>  <PUBCHEM_ATOM_DEF_STEREO_COUNT>  (1) 
0

>  <PUBCHEM_ATOM_UDEF_STEREO_COUNT>  (1) 
2

>  <PUBCHEM_BOND_DEF_STEREO_COUNT>  (1) 
0

>  <PUBCHEM_BOND_UDEF_STEREO_COUNT>  (1) 
0

>  <PUBCHEM_ISOTOPIC_ATOM_COUNT>  (1) 
0

>  <PUBCHEM_COMPONENT_COUNT>  (1) 
1

>  <PUBCHEM_CACTVS_TAUTO_COUNT>  (1) 
1

>  <PUBCHEM_CONFORMER_ID>  (1) 
0000035400000003

>  <PUBCHEM_MMFF94_ENERGY>  (1) 
12.2096

>  <PUBCHEM_FEATURE_SELFOVERLAP>  (1) 
45.789

>  <PUBCHEM_SHAPE_FINGERPRINT>  (1) 
12423570 1 17968641774820320317
20653091 64 18190751838230635330
21040471 1 18410858737209385625
21922407 69 15069772861244741107
23235685 24 18409171012620276637
23552423 10 18333735718883030179
241688 4 17831295004199804376
24536 1 18335425651048243729
5084963 1 18190181191758837047

>  <PUBCHEM_SHAPE_MULTIPOLES>  (1) 
177.34
2.8
1.9
0.93
0.45
0.63
-0.04
-0.42
-0.24
-0.27
0.09
-0.12
-0.33
-0.08

>  <PUBCHEM_SHAPE_SELFOVERLAP>  (1) 
340.912

>  <PUBCHEM_SHAPE_VOLUME>  (1) 
107.1

>  <PUBCHEM_COORDINATE_TYPE>  (1) 
2
5
10

$$$$
