8530
     RDKit          3D

 12 13  0  0  0  0  0  0  0  0999 V2000
   -1.0551   -2.6722   -0.0003 O   0  0  0  0  0  0  0  0  0  0  0  0
   -1.0555    2.6720   -0.0014 O   0  0  0  0  0  0  0  0  0  0  0  0
    0.2446   -0.6988   -0.0002 C   0  0  0  0  0  0  0  0  0  0  0  0
    0.2444    0.6988    0.0002 C   0  0  0  0  0  0  0  0  0  0  0  0
   -1.0275   -1.4477   -0.0003 C   0  0  0  0  0  0  0  0  0  0  0  0
   -1.0278    1.4475    0.0002 C   0  0  0  0  0  0  0  0  0  0  0  0
    1.4570   -1.3975   -0.0005 C   0  0  0  0  0  0  0  0  0  0  0  0
    1.4566    1.3977    0.0006 C   0  0  0  0  0  0  0  0  0  0  0  0
   -2.2818   -0.6671    0.0005 C   0  0  0  0  0  0  0  0  0  0  0  0
   -2.2820    0.6667    0.0007 C   0  0  0  0  0  0  0  0  0  0  0  0
    2.6636   -0.6968   -0.0001 C   0  0  0  0  0  0  0  0  0  0  0  0
    2.6634    0.6972    0.0005 C   0  0  0  0  0  0  0  0  0  0  0  0
  1  5  2  0
  2  6  2  0
  3  4  2  0
  3  5  1  0
  3  7  1  0
  4  6  1  0
  4  8  1  0
  5  9  1  0
  6 10  1  0
  7 11  2  0
  8 12  2  0
  9 10  2  0
 11 12  1  0
M  END
>  <PUBCHEM_COMPOUND_CID>  (1) 
8530

>  <PUBCHEM_CONFORMER_RMSD>  (1) 
0.4

>  <PUBCHEM_CONFORMER_DIVERSEORDER>  (1) 
1

>  <PUBCHEM_MMFF94_PARTIAL_CHARGES>  (1) 
18
1 -0.57
10 -0.14
11 -0.15
12 -0.15
13 0.15
14 0.15
15 0.15
16 0.15
17 0.15
18 0.15
2 -0.57
3 0.09
4 0.09
5 0.47
6 0.47
7 -0.15
8 -0.15
9 -0.14

>  <PUBCHEM_EFFECTIVE_ROTOR_COUNT>  (1) 
0

>  <PUBCHEM_PHARMACOPHORE_FEATURES>  (1) 
4
1 1 acceptor
1 2 acceptor
6 3 4 5 6 9 10 rings
6 3 4 7 8 11 12 rings

>  <PUBCHEM_HEAVY_ATOM_COUNT>  (1) 
12

>  <PUBCHEM_ATOM_DEF_STEREO_COUNT>  (1) 
0

>  <PUBCHEM_ATOM_UDEF_STEREO_COUNT>  (1) 
0

>  <PUBCHEM_BOND_DEF_STEREO_COUNT>  (1) 
0

>  <PUBCHEM_BOND_UDEF_STEREO_COUNT>  (1) 
0

>  <PUBCHEM_ISOTOPIC_ATOM_COUNT>  (1) 
0

>  <PUBCHEM_COMPONENT_COUNT>  (1) 
1

>  <PUBCHEM_CACTVS_TAUTO_COUNT>  (1) 
1

>  <PUBCHEM_CONFORMER_ID>  (1) 
0000215200000001

>  <PUBCHEM_MMFF94_ENERGY>  (1) 
31.5725

>  <PUBCHEM_FEATURE_SELFOVERLAP>  (1) 
20.319

>  <PUBCHEM_SHAPE_FINGERPRINT>  (1) 
10967382 1 18338516468444053031
11206711 2 18337955571479867876
12382932 28 18268144434479709192
12524768 44 18341900726574601150
16945 1 18410573989667958022
193761 8 18410573985457393254
20871998 184 18200879581436216503
21040471 1 18266741281723139296
2334 1 17978228592933584930
23402539 116 18271793653585427287
23552423 10 18116715308025172046
23559900 14 17695351370428146446
241688 4 18194400215211013889
2748010 2 18123750030569345124
2897 32 18265052440173163710
5084963 1 18059007268184174584
528886 8 18339637966078099626
66348 1 18265332794100087052

>  <PUBCHEM_SHAPE_MULTIPOLES>  (1) 
235.22
3.46
2.45
0.6
1.03
0
0
0
0
-0.83
0
0.02
0
0

>  <PUBCHEM_SHAPE_SELFOVERLAP>  (1) 
519.075

>  <PUBCHEM_SHAPE_VOLUME>  (1) 
125.6

>  <PUBCHEM_COORDINATE_TYPE>  (1) 
2
5
10

$$$$
