8531
     RDKit          3D

 21 23  0  0  0  0  0  0  0  0999 V2000
    3.1683    1.7604   -0.1447 S   0  0  0  0  0  0  0  0  0  0  0  0
   -0.1401    0.7942   -0.1141 S   0  0  0  0  0  0  0  0  0  0  0  0
    1.8151    2.6685   -0.0812 O   0  0  0  0  0  0  0  0  0  0  0  0
    3.9439    2.0540    1.0458 O   0  0  0  0  0  0  0  0  0  0  0  0
    3.7450    1.8854   -1.4693 O   0  0  0  0  0  0  0  0  0  0  0  0
   -0.5720   -1.7395    0.1007 N   0  0  0  0  0  0  0  0  0  0  0  0
   -5.0532    2.3404    0.5038 N   0  0  0  0  0  0  0  0  0  0  0  0
    2.5986    0.0992   -0.0062 C   0  0  0  0  0  0  0  0  0  0  0  0
    1.2357   -0.2389    0.0000 C   0  0  0  0  0  0  0  0  0  0  0  0
    0.8043   -1.5643    0.1093 C   0  0  0  0  0  0  0  0  0  0  0  0
    3.5370   -0.9305    0.1009 C   0  0  0  0  0  0  0  0  0  0  0  0
   -1.1629   -0.5728   -0.0113 C   0  0  0  0  0  0  0  0  0  0  0  0
    1.7734   -2.5857    0.2165 C   0  0  0  0  0  0  0  0  0  0  0  0
    3.1319   -2.2562    0.2109 C   0  0  0  0  0  0  0  0  0  0  0  0
   -2.5921   -0.3718   -0.0538 C   0  0  0  0  0  0  0  0  0  0  0  0
    5.0056   -0.6440    0.0999 C   0  0  0  0  0  0  0  0  0  0  0  0
   -3.1282    0.8807    0.2427 C   0  0  0  0  0  0  0  0  0  0  0  0
   -3.4342   -1.4309   -0.3899 C   0  0  0  0  0  0  0  0  0  0  0  0
   -4.5090    1.0743    0.2030 C   0  0  0  0  0  0  0  0  0  0  0  0
   -4.8149   -1.2374   -0.4295 C   0  0  0  0  0  0  0  0  0  0  0  0
   -5.3523    0.0152   -0.1333 C   0  0  0  0  0  0  0  0  0  0  0  0
  1  3  1  0
  1  4  2  0
  1  5  2  0
  1  8  1  0
  2  9  1  0
  2 12  1  0
  6 10  1  0
  6 12  2  0
  7 19  1  0
  8  9  2  0
  8 11  1  0
  9 10  1  0
 10 13  2  0
 11 14  2  0
 11 16  1  0
 12 15  1  0
 13 14  1  0
 15 17  2  0
 15 18  1  0
 17 19  1  0
 18 20  2  0
 19 21  2  0
 20 21  1  0
M  END
>  <PUBCHEM_COMPOUND_CID>  (1) 
8531

>  <PUBCHEM_CONFORMER_RMSD>  (1) 
0.6

>  <PUBCHEM_CONFORMER_DIVERSEORDER>  (1) 
1
2

>  <PUBCHEM_MMFF94_PARTIAL_CHARGES>  (1) 
30
1 1.49
10 0.23
11 -0.14
12 0.33
13 -0.15
14 -0.15
15 0.05
16 0.14
17 -0.15
18 -0.15
19 0.1
2 -0.08
20 -0.15
21 -0.15
22 0.15
23 0.15
27 0.15
28 0.15
29 0.15
3 -0.68
30 0.15
31 0.5
32 0.4
33 0.4
4 -0.65
5 -0.65
6 -0.57
7 -0.9
8 -0.01
9 0.04

>  <PUBCHEM_EFFECTIVE_ROTOR_COUNT>  (1) 
2

>  <PUBCHEM_PHARMACOPHORE_FEATURES>  (1) 
10
1 3 acceptor
1 4 acceptor
1 5 acceptor
1 6 acceptor
1 7 cation
1 7 donor
4 1 3 4 5 anion
5 2 6 9 10 12 rings
6 15 17 18 19 20 21 rings
6 8 9 10 11 13 14 rings

>  <PUBCHEM_HEAVY_ATOM_COUNT>  (1) 
21

>  <PUBCHEM_ATOM_DEF_STEREO_COUNT>  (1) 
0

>  <PUBCHEM_ATOM_UDEF_STEREO_COUNT>  (1) 
0

>  <PUBCHEM_BOND_DEF_STEREO_COUNT>  (1) 
0

>  <PUBCHEM_BOND_UDEF_STEREO_COUNT>  (1) 
0

>  <PUBCHEM_ISOTOPIC_ATOM_COUNT>  (1) 
0

>  <PUBCHEM_COMPONENT_COUNT>  (1) 
1

>  <PUBCHEM_CACTVS_TAUTO_COUNT>  (1) 
1

>  <PUBCHEM_CONFORMER_ID>  (1) 
0000215300000001

>  <PUBCHEM_MMFF94_ENERGY>  (1) 
63.3306

>  <PUBCHEM_FEATURE_SELFOVERLAP>  (1) 
50.874

>  <PUBCHEM_SHAPE_FINGERPRINT>  (1) 
10411042 1 17977382729506959394
10595046 47 18413103992089199231
10616163 171 18342457067127813663
10906281 52 18261407637190969082
10937287 8 17175482893363837428
11405975 8 18335984190439790435
11471102 20 18408884040370166254
12107183 9 17836085563967668451
12236239 1 18131630062754529326
12633257 1 17749659753672692994
13140716 1 18335696195992920202
13167823 11 18413386527838650327
14528608 73 18411981394590071335
14790565 3 18046917244980511220
15196674 1 18411699898249261225
15239154 128 18412826889241405297
15442244 35 18339643309249413931
15536298 74 18413107272832082207
1601671 61 18339642239802726078
17492 89 18412826880757771359
17834072 33 18413386549276349207
17844677 252 18412270532184102707
18186145 218 18113612378600282279
18681886 176 18201994430888305938
200 152 18201716241503320451
20612939 158 18334014994846593381
20645477 70 18341896281294213862
20715895 44 17909829834897907465
20739085 24 18186240632422048516
21033648 29 17023171713595841543
21065198 57 18410012092293306363
21267235 1 18411989052749258159
21421861 104 17752479863458959778
21452121 103 18342729754695654880
21709351 56 18410849949785484775
221490 88 18408328804057027203
22393880 68 18271814548284642389
23402539 116 18271800194562182047
23402655 69 18341611486423775743
23557571 272 14405188326587038563
23558518 356 17972035009897169554
23559900 14 18129097823130704439
245318 6 17100039863836629124
335352 9 18410293571448693214
34797466 226 16988567960766215837
350125 39 18408604734716066956
3545911 37 18410293593076393163
4214541 1 18412261701794470155
474 4 18186803624950206236
5104073 3 18408887322052150907
543358 83 18339083687658445578
633830 44 18259702294165950843
67856867 119 18412255147073100482
7364860 26 18412261731711756046
77779 3 18411981343414603243
8272917 22 18411704248945987998
9709674 26 18411142415905986311
9981440 41 17688586482343647480
9999458 23 18113618993525333406

>  <PUBCHEM_SHAPE_MULTIPOLES>  (1) 
412.3
11.4
2.75
0.76
8.6
0.52
0.08
2.51
-0.05
-1.73
-0.1
-0.31
0.22
-0.83

>  <PUBCHEM_SHAPE_SELFOVERLAP>  (1) 
887.159

>  <PUBCHEM_SHAPE_VOLUME>  (1) 
228.9

>  <PUBCHEM_COORDINATE_TYPE>  (1) 
2
5
10

$$$$
