8536
     RDKit          3D

 17 18  0  0  1  0  0  0  0  0999 V2000
   -2.9079   -0.1658    0.1778 S   0  0  0  0  0  0  0  0  0  0  0  0
   -2.4924   -0.5661    1.6997 O   0  0  0  0  0  0  0  0  0  0  0  0
   -0.7409   -2.1112    0.0280 O   0  0  0  0  0  0  0  0  0  0  0  0
   -3.3523   -1.3452   -0.5237 O   0  0  0  0  0  0  0  0  0  0  0  0
   -3.6617    1.0642    0.1955 O   0  0  0  0  0  0  0  0  0  0  0  0
    1.1053    2.9219    0.0579 O   0  0  0  0  0  0  0  0  0  0  0  0
   -1.2500    0.2189   -0.3896 C   0  0  0  0  0  0  0  0  0  0  0  0
   -0.7778    1.4740    0.3426 C   0  0  0  0  0  0  0  0  0  0  0  0
   -0.3316   -0.9590   -0.0856 C   0  0  0  0  0  0  0  0  0  0  0  0
   -1.3003    0.4299   -1.9080 C   0  0  0  0  0  0  0  0  0  0  0  0
    1.1245   -0.6886    0.0012 C   0  0  0  0  0  0  0  0  0  0  0  0
    0.6842    1.7712    0.1220 C   0  0  0  0  0  0  0  0  0  0  0  0
    1.6116    0.6203    0.0656 C   0  0  0  0  0  0  0  0  0  0  0  0
    2.0213   -1.7641   -0.0091 C   0  0  0  0  0  0  0  0  0  0  0  0
    2.9918    0.8518    0.1037 C   0  0  0  0  0  0  0  0  0  0  0  0
    3.3960   -1.5287    0.0347 C   0  0  0  0  0  0  0  0  0  0  0  0
    3.8802   -0.2235    0.0876 C   0  0  0  0  0  0  0  0  0  0  0  0
  1  2  1  0
  1  4  2  0
  1  5  2  0
  1  7  1  0
  3  9  2  0
  6 12  2  0
  7  8  1  0
  7  9  1  0
  7 10  1  0
  8 12  1  0
  9 11  1  0
 11 13  2  0
 11 14  1  0
 12 13  1  0
 13 15  1  0
 14 16  2  0
 15 17  2  0
 16 17  1  0
M  END
>  <PUBCHEM_COMPOUND_CID>  (1) 
8536

>  <PUBCHEM_CONFORMER_RMSD>  (1) 
0.6

>  <PUBCHEM_CONFORMER_DIVERSEORDER>  (1) 
2
3
4
1

>  <PUBCHEM_MMFF94_PARTIAL_CHARGES>  (1) 
21
1 1.38
11 0.09
12 0.42
13 0.09
14 -0.15
15 -0.15
16 -0.15
17 -0.15
2 -0.68
23 0.15
24 0.15
25 0.5
26 0.15
27 0.15
3 -0.57
4 -0.65
5 -0.65
6 -0.57
7 0.17
8 0.06
9 0.42

>  <PUBCHEM_EFFECTIVE_ROTOR_COUNT>  (1) 
1.4

>  <PUBCHEM_PHARMACOPHORE_FEATURES>  (1) 
8
1 2 acceptor
1 3 acceptor
1 4 acceptor
1 5 acceptor
1 6 acceptor
4 1 2 4 5 anion
6 11 13 14 15 16 17 rings
6 7 8 9 11 12 13 rings

>  <PUBCHEM_HEAVY_ATOM_COUNT>  (1) 
17

>  <PUBCHEM_ATOM_DEF_STEREO_COUNT>  (1) 
0

>  <PUBCHEM_ATOM_UDEF_STEREO_COUNT>  (1) 
1

>  <PUBCHEM_BOND_DEF_STEREO_COUNT>  (1) 
0

>  <PUBCHEM_BOND_UDEF_STEREO_COUNT>  (1) 
0

>  <PUBCHEM_ISOTOPIC_ATOM_COUNT>  (1) 
0

>  <PUBCHEM_COMPONENT_COUNT>  (1) 
1

>  <PUBCHEM_CACTVS_TAUTO_COUNT>  (1) 
2

>  <PUBCHEM_CONFORMER_ID>  (1) 
0000215800000002

>  <PUBCHEM_MMFF94_ENERGY>  (1) 
42.8939

>  <PUBCHEM_FEATURE_SELFOVERLAP>  (1) 
40.679

>  <PUBCHEM_SHAPE_FINGERPRINT>  (1) 
10618630 7 18339361864527332908
10967382 1 18339360756093642994
10980938 120 18411703222548608634
11132069 177 18342172237374800170
11471102 20 18410848854537097484
12032990 46 18410859828474139078
12251169 10 18341338850842856835
12382932 28 18413389856221708706
12403814 3 17676481782934337820
12696612 119 18412269458009606124
13132413 78 18343023276428298628
13140716 1 18123185981289101104
13214271 11 18272645727567223286
13221675 6 18342739602744356390
13571099 22 18343298150203454901
14144814 61 18341894108124904538
14178342 30 18054771030761811634
15196674 1 18411699885364326850
15309172 13 18342182145790804339
15375462 189 18260546693099361178
15375462 478 17846499222998340225
15536298 74 18273493494388125784
16945 1 18337679740090040752
17844478 74 17967535653216659940
193761 8 17834674173089278190
200 152 18201988950441048839
20201158 50 18333731316578234874
21267235 1 18412834585459127702
21501502 16 18194401323323235998
22721475 48 18333733524312555812
2334 1 18339079281222407896
23402539 116 18271514317681803934
23463225 33 18411138004884071044
23493267 7 17531800226132406048
25 1 17828463796466419997
2748010 2 18267016163919847484
3286 77 18336823203658082943
5104073 3 18411698785747386882
528886 8 18341324505251187626
63268167 104 18342176678328669425
7364860 26 18198058282155239160
77492 1 17561081418869994255
81228 2 17976834085883236248
8809292 202 18187370899957118738

>  <PUBCHEM_SHAPE_MULTIPOLES>  (1) 
324.35
5.74
2.19
0.99
0.28
0.67
-0.19
-1.28
0.48
0.61
0.1
-0.72
0
0.07

>  <PUBCHEM_SHAPE_SELFOVERLAP>  (1) 
694.601

>  <PUBCHEM_SHAPE_VOLUME>  (1) 
180.3

>  <PUBCHEM_COORDINATE_TYPE>  (1) 
2
5
10

$$$$
