854
     RDKit          3D

 10  9  0  0  1  0  0  0  0  0999 V2000
    0.2711   -1.5965    0.1898 O   0  0  0  0  0  0  0  0  0  0  0  0
   -1.5749    1.4744   -0.5591 O   0  0  0  0  0  0  0  0  0  0  0  0
    1.3526    0.8258    1.2317 O   0  0  0  0  0  0  0  0  0  0  0  0
   -3.6482   -0.1540    0.3592 O   0  0  0  0  0  0  0  0  0  0  0  0
    3.4934   -0.3075    0.0864 O   0  0  0  0  0  0  0  0  0  0  0  0
    0.0457   -0.3244   -0.4194 C   0  0  0  0  0  0  0  0  0  0  0  0
   -1.2912    0.2357    0.0900 C   0  0  0  0  0  0  0  0  0  0  0  0
    1.2519    0.5906   -0.1654 C   0  0  0  0  0  0  0  0  0  0  0  0
   -2.4538   -0.7250   -0.1657 C   0  0  0  0  0  0  0  0  0  0  0  0
    2.5532   -0.0191   -0.6475 C   0  0  0  0  0  0  0  0  0  0  0  0
  1  6  1  0
  2  7  1  0
  3  8  1  0
  4  9  1  0
  5 10  2  0
  6  7  1  0
  6  8  1  0
  7  9  1  0
  8 10  1  0
M  END
>  <PUBCHEM_COMPOUND_CID>  (1) 
854

>  <PUBCHEM_CONFORMER_RMSD>  (1) 
0.6

>  <PUBCHEM_CONFORMER_DIVERSEORDER>  (1) 
5
58
93
20
87
10
38
89
100
81
82
13
98
24
69
3
43
83
39
56
41
2
97
14
77
27
86
85
62
9
95
29
51
18
63
45
8
60
96
1
57
99
32
71
70
26
66
17
19
79
47
37
94
46
102
92
34
76
11
72
42
40
6
65
7
36
75
90
16
53
68
55
50
101
74
4
54
21
15
91
84
49
61
12
35
59
78
88
22
23
80
52
64
31
30
33
28
67
25
48
44
73

>  <PUBCHEM_MMFF94_PARTIAL_CHARGES>  (1) 
15
1 -0.68
10 0.45
16 0.4
17 0.06
18 0.4
19 0.4
2 -0.68
20 0.4
3 -0.68
4 -0.68
5 -0.57
6 0.28
7 0.28
8 0.34
9 0.28

>  <PUBCHEM_EFFECTIVE_ROTOR_COUNT>  (1) 
4

>  <PUBCHEM_PHARMACOPHORE_FEATURES>  (1) 
9
1 1 acceptor
1 1 donor
1 2 acceptor
1 2 donor
1 3 acceptor
1 3 donor
1 4 acceptor
1 4 donor
1 5 acceptor

>  <PUBCHEM_HEAVY_ATOM_COUNT>  (1) 
10

>  <PUBCHEM_ATOM_DEF_STEREO_COUNT>  (1) 
0

>  <PUBCHEM_ATOM_UDEF_STEREO_COUNT>  (1) 
3

>  <PUBCHEM_BOND_DEF_STEREO_COUNT>  (1) 
0

>  <PUBCHEM_BOND_UDEF_STEREO_COUNT>  (1) 
0

>  <PUBCHEM_ISOTOPIC_ATOM_COUNT>  (1) 
0

>  <PUBCHEM_COMPONENT_COUNT>  (1) 
1

>  <PUBCHEM_CACTVS_TAUTO_COUNT>  (1) 
5

>  <PUBCHEM_CONFORMER_ID>  (1) 
0000035600000005

>  <PUBCHEM_MMFF94_ENERGY>  (1) 
13.8875

>  <PUBCHEM_FEATURE_SELFOVERLAP>  (1) 
45.695

>  <PUBCHEM_SHAPE_FINGERPRINT>  (1) 
10219947 1 18040441013838120175
10857977 72 18335698407726614297
11062470 55 9079116643956290591
12897270 3 18335136496970662397
12932764 1 18272078401047441015
14325111 11 18408042896736831380
21040471 1 18408598162956882254
23235685 24 18113899377121057471
29004967 10 16774085059394232030
5084963 1 18341614836376674404

>  <PUBCHEM_SHAPE_MULTIPOLES>  (1) 
176.45
4.9
1.14
0.81
0.48
0.03
0.09
0.4
0.12
0.22
-0.01
-0.21
-0.13
0.18

>  <PUBCHEM_SHAPE_SELFOVERLAP>  (1) 
331.309

>  <PUBCHEM_SHAPE_VOLUME>  (1) 
109

>  <PUBCHEM_COORDINATE_TYPE>  (1) 
2
5
10

$$$$
