8548
     RDKit          3D

 24 27  0  0  1  0  0  0  0  0999 V2000
    0.5963   -1.1905    2.4746 O   0  0  0  0  0  0  0  0  0  0  0  0
   -3.2768    2.9271    0.4158 O   0  0  0  0  0  0  0  0  0  0  0  0
    1.4813   -0.2250   -1.0259 N   0  0  0  0  0  0  0  0  0  0  0  0
   -2.9853   -2.4903   -0.6472 N   0  0  0  0  0  0  0  0  0  0  0  0
    3.7181    0.6274    0.0191 C   0  0  0  0  0  0  0  0  0  0  0  0
    1.6450   -0.7799    0.3427 C   0  0  0  0  0  0  0  0  0  0  0  0
    2.8934   -0.1921    1.0384 C   0  0  0  0  0  0  0  0  0  0  0  0
    2.8265    1.8003   -0.4393 C   0  0  0  0  0  0  0  0  0  0  0  0
    3.9715   -0.2720   -1.2113 C   0  0  0  0  0  0  0  0  0  0  0  0
    1.5027    1.2540   -0.9979 C   0  0  0  0  0  0  0  0  0  0  0  0
    2.6297   -0.6799   -1.8435 C   0  0  0  0  0  0  0  0  0  0  0  0
    0.3851   -0.6050    1.1938 C   0  0  0  0  0  0  0  0  0  0  0  0
    4.9993    1.1126    0.6241 C   0  0  0  0  0  0  0  0  0  0  0  0
   -0.8215   -1.2360    0.5458 C   0  0  0  0  0  0  0  0  0  0  0  0
    6.2125    0.8096    0.1504 C   0  0  0  0  0  0  0  0  0  0  0  0
   -1.9586   -0.4929    0.2266 C   0  0  0  0  0  0  0  0  0  0  0  0
   -0.7567   -2.5900    0.2759 C   0  0  0  0  0  0  0  0  0  0  0  0
   -3.0364   -1.1717   -0.3797 C   0  0  0  0  0  0  0  0  0  0  0  0
   -2.0460    0.8844    0.4911 C   0  0  0  0  0  0  0  0  0  0  0  0
   -1.8608   -3.1666   -0.3185 C   0  0  0  0  0  0  0  0  0  0  0  0
   -4.1747   -0.4376   -0.7017 C   0  0  0  0  0  0  0  0  0  0  0  0
   -3.1963    1.5939    0.1584 C   0  0  0  0  0  0  0  0  0  0  0  0
   -4.2618    0.9317   -0.4387 C   0  0  0  0  0  0  0  0  0  0  0  0
   -4.4865    3.5886    0.0471 C   0  0  0  0  0  0  0  0  0  0  0  0
  1 12  1  0
  2 22  1  0
  2 24  1  0
  3  6  1  0
  3 10  1  0
  3 11  1  0
  4 18  2  0
  4 20  1  0
  5  7  1  0
  5  8  1  0
  5  9  1  0
  5 13  1  0
  6  7  1  0
  6 12  1  0
  8 10  1  0
  9 11  1  0
 12 14  1  0
 13 15  2  0
 14 16  2  0
 14 17  1  0
 16 18  1  0
 16 19  1  0
 17 20  2  0
 18 21  1  0
 19 22  2  0
 21 23  2  0
 22 23  1  0
M  END
>  <PUBCHEM_COMPOUND_CID>  (1) 
8548

>  <PUBCHEM_CONFORMER_RMSD>  (1) 
0.8

>  <PUBCHEM_CONFORMER_DIVERSEORDER>  (1) 
2
6
5
12
9
11
10
3
4
13
7
8
1

>  <PUBCHEM_MMFF94_PARTIAL_CHARGES>  (1) 
29
1 -0.68
10 0.27
11 0.27
12 0.42
13 -0.29
14 -0.14
15 -0.3
17 -0.15
18 0.31
19 -0.15
2 -0.36
20 0.16
21 -0.15
22 0.08
23 -0.15
24 0.28
3 -0.81
37 0.15
38 0.15
39 0.15
4 -0.62
40 0.4
41 0.15
42 0.15
43 0.15
44 0.15
45 0.15
5 0.14
6 0.27

>  <PUBCHEM_EFFECTIVE_ROTOR_COUNT>  (1) 
5.2

>  <PUBCHEM_PHARMACOPHORE_FEATURES>  (1) 
9
1 1 acceptor
1 1 donor
1 15 hydrophobe
1 2 acceptor
1 3 cation
1 4 acceptor
6 16 18 19 21 22 23 rings
6 4 14 16 17 18 20 rings
8 3 5 6 7 8 9 10 11 rings

>  <PUBCHEM_HEAVY_ATOM_COUNT>  (1) 
24

>  <PUBCHEM_ATOM_DEF_STEREO_COUNT>  (1) 
0

>  <PUBCHEM_ATOM_UDEF_STEREO_COUNT>  (1) 
2

>  <PUBCHEM_BOND_DEF_STEREO_COUNT>  (1) 
0

>  <PUBCHEM_BOND_UDEF_STEREO_COUNT>  (1) 
0

>  <PUBCHEM_ISOTOPIC_ATOM_COUNT>  (1) 
0

>  <PUBCHEM_COMPONENT_COUNT>  (1) 
1

>  <PUBCHEM_CACTVS_TAUTO_COUNT>  (1) 
1

>  <PUBCHEM_CONFORMER_ID>  (1) 
0000216400000002

>  <PUBCHEM_MMFF94_ENERGY>  (1) 
92.5731

>  <PUBCHEM_FEATURE_SELFOVERLAP>  (1) 
45.702

>  <PUBCHEM_SHAPE_FINGERPRINT>  (1) 
10411042 1 17907012138720126943
10498660 4 18268709416306660777
10646746 165 18411418449232232436
10906281 52 17676500471244351716
11370993 70 18273497879354952934
11582403 64 15547059731056201147
11640471 11 18113335297607048651
12107183 9 18119800327669001426
12173636 292 18411979148717821031
12236239 1 17895183428738630610
12422481 6 17243276246269567056
12788726 201 17681292257801668139
12916748 109 18410017645448220979
13583140 156 17632010961845053902
13911987 19 16199311074187697008
13965767 371 17898006824501815845
14142880 1 18187363216930441789
14251764 38 18266741466555290160
14739800 52 18195784449576207264
14790565 3 18341621395820961985
16752209 62 18341320129359988371
16988056 13 16392106692759465893
17134986 127 18123192307955100431
17980427 23 17968944222861017804
18186145 218 18058744515065047499
192875 21 18044371858049069700
19489759 90 18271804666150378482
20511986 3 17969200348529316088
20645477 56 18272096014824373123
20645477 70 16630539405783820910
21033650 10 18264229005259871270
21524375 3 18113622253067556507
21756936 100 17460061598025163156
21864079 5 18337953373015833057
22122407 14 16008750191261167109
22149856 69 17841143357108033153
22393880 68 18201451259338359110
23366157 5 17759235203419631091
23402539 116 18339917233552481022
23557571 272 18201439237144200146
23559900 14 18131355181364994942
2838139 119 18342451573985818224
3472631 163 18411698747283013325
3493558 16 18267025144924245552
404807 14 16977597815867100374
474 4 17530681030526990330
5048184 11 18338238142164160709
5283173 99 18343584036407088184
5895379 119 18336838571241492036
6328613 192 17896045494117870996
7808743 9 18411415086099143425
7832392 63 18335987480099629396
9709674 26 18272940452623556910
9862522 239 17750223712970082133
9981440 41 18409166610500663195

>  <PUBCHEM_SHAPE_MULTIPOLES>  (1) 
472.21
10.44
3.11
1.31
6.77
0.62
0.18
6.46
-1.02
-4.95
0.02
0.88
-0.38
-0.33

>  <PUBCHEM_SHAPE_SELFOVERLAP>  (1) 
1034.251

>  <PUBCHEM_SHAPE_VOLUME>  (1) 
252

>  <PUBCHEM_COORDINATE_TYPE>  (1) 
2
5
10

$$$$
