8556
     RDKit          3D

 21 22  0  0  0  0  0  0  0  0999 V2000
   -3.6026    1.0142   -0.3850 P   0  0  0  0  0  0  0  0  0  0  0  0
    3.9591    0.7673   -0.2607 P   0  0  0  0  0  0  0  0  0  0  0  0
   -2.5079    0.6717    0.7523 O   0  0  0  0  0  0  0  0  0  0  0  0
    2.8256   -0.3835   -0.2057 O   0  0  0  0  0  0  0  0  0  0  0  0
   -3.7970   -0.3803   -1.1813 O   0  0  0  0  0  0  0  0  0  0  0  0
   -4.9715    1.1372    0.4691 O   0  0  0  0  0  0  0  0  0  0  0  0
    4.0526    1.3044    1.2622 O   0  0  0  0  0  0  0  0  0  0  0  0
    5.3231   -0.0873   -0.4274 O   0  0  0  0  0  0  0  0  0  0  0  0
   -3.2925    2.2114   -1.2359 O   0  0  0  0  0  0  0  0  0  0  0  0
    3.7547    1.8205   -1.3106 O   0  0  0  0  0  0  0  0  0  0  0  0
   -0.7880   -0.9533    0.3053 C   0  0  0  0  0  0  0  0  0  0  0  0
    0.5783   -1.2280    0.0592 C   0  0  0  0  0  0  0  0  0  0  0  0
   -1.1946    0.3748    0.5136 C   0  0  0  0  0  0  0  0  0  0  0  0
   -0.2675    1.4170    0.4800 C   0  0  0  0  0  0  0  0  0  0  0  0
    1.4977   -0.1667    0.0283 C   0  0  0  0  0  0  0  0  0  0  0  0
    1.0761    1.1468    0.2375 C   0  0  0  0  0  0  0  0  0  0  0  0
   -1.7072   -2.0146    0.3358 C   0  0  0  0  0  0  0  0  0  0  0  0
    0.9851   -2.5559   -0.1494 C   0  0  0  0  0  0  0  0  0  0  0  0
   -0.6961    2.8306    0.7010 C   0  0  0  0  0  0  0  0  0  0  0  0
   -1.2854   -3.3279    0.1268 C   0  0  0  0  0  0  0  0  0  0  0  0
    0.0582   -3.5981   -0.1153 C   0  0  0  0  0  0  0  0  0  0  0  0
  1  3  1  0
  1  5  1  0
  1  6  1  0
  1  9  2  0
  2  4  1  0
  2  7  1  0
  2  8  1  0
  2 10  2  0
  3 13  1  0
  4 15  1  0
 11 12  1  0
 11 13  2  0
 11 17  1  0
 12 15  2  0
 12 18  1  0
 13 14  1  0
 14 16  2  0
 14 19  1  0
 15 16  1  0
 17 20  2  0
 18 21  2  0
 20 21  1  0
M  END
>  <PUBCHEM_COMPOUND_CID>  (1) 
8556

>  <PUBCHEM_CONFORMER_RMSD>  (1) 
0.6

>  <PUBCHEM_CONFORMER_DIVERSEORDER>  (1) 
3
4
2
5
1
6

>  <PUBCHEM_MMFF94_PARTIAL_CHARGES>  (1) 
28
1 1.51
10 -0.7
13 0.08
14 -0.14
15 0.08
16 -0.15
17 -0.15
18 -0.15
19 0.14
2 1.51
20 -0.15
21 -0.15
22 0.15
23 0.15
24 0.15
28 0.15
29 0.15
3 -0.35
30 0.5
31 0.5
32 0.5
33 0.5
4 -0.35
5 -0.77
6 -0.77
7 -0.77
8 -0.77
9 -0.7

>  <PUBCHEM_EFFECTIVE_ROTOR_COUNT>  (1) 
4

>  <PUBCHEM_PHARMACOPHORE_FEATURES>  (1) 
10
1 10 acceptor
1 5 acceptor
1 6 acceptor
1 7 acceptor
1 8 acceptor
1 9 acceptor
4 1 5 6 9 anion
4 2 7 8 10 anion
6 11 12 13 14 15 16 rings
6 11 12 17 18 20 21 rings

>  <PUBCHEM_HEAVY_ATOM_COUNT>  (1) 
21

>  <PUBCHEM_ATOM_DEF_STEREO_COUNT>  (1) 
0

>  <PUBCHEM_ATOM_UDEF_STEREO_COUNT>  (1) 
0

>  <PUBCHEM_BOND_DEF_STEREO_COUNT>  (1) 
0

>  <PUBCHEM_BOND_UDEF_STEREO_COUNT>  (1) 
0

>  <PUBCHEM_ISOTOPIC_ATOM_COUNT>  (1) 
0

>  <PUBCHEM_COMPONENT_COUNT>  (1) 
1

>  <PUBCHEM_CACTVS_TAUTO_COUNT>  (1) 
1

>  <PUBCHEM_CONFORMER_ID>  (1) 
0000216C00000003

>  <PUBCHEM_MMFF94_ENERGY>  (1) 
-3.9674

>  <PUBCHEM_FEATURE_SELFOVERLAP>  (1) 
50.847

>  <PUBCHEM_SHAPE_FINGERPRINT>  (1) 
10411042 1 17474108078024669530
10693767 8 17916573246631384719
10967382 1 18339927021603567955
12035758 1 18268989959100856489
12730499 353 18336549296967843441
12969540 114 18337941333747826949
13052359 8 18336825398133637730
13140716 1 18268434701212497832
13583140 156 16805317816446657656
14790565 3 18340219517799455729
15042514 8 18337962289231088578
16752209 62 18266733769831068226
16945 1 18268157469536686378
17492 54 18262785350835217231
19591789 44 18339082704353560507
19784866 34 18340763754674573041
20602899 9 15698284429672606406
20871999 31 18268713981376296558
21524375 3 18260831479537756034
21634736 98 17837487458320263247
22182313 1 18267889266115110223
23114952 82 17828757344511667229
2334 1 18196376041938082754
23402539 116 18272366469046994396
23493267 7 17966972729080606568
23557571 272 18055923332201887512
23558518 356 17984439442093212272
23559900 14 17907563736319968107
25 1 18410569557504457615
266924 87 18122904226902684677
2748010 2 18269843179839244882
298252 57 18335137600529578347
3084891 72 18341895177708755402
335352 9 18411141316699638430
350125 39 18193848265312448235
352729 6 18412273821981507850
3759504 43 18040721393435042907
394222 165 17968371239093554384
559249 180 18334574651520649026
7364860 26 17980764831341417306
84936 182 18055627317943404240

>  <PUBCHEM_SHAPE_MULTIPOLES>  (1) 
392.91
7.6
3.67
0.94
3.61
2.86
0.11
-4.85
1.56
-1.27
-0.05
-0.03
-0.41
0.17

>  <PUBCHEM_SHAPE_SELFOVERLAP>  (1) 
816.159

>  <PUBCHEM_SHAPE_VOLUME>  (1) 
225.5

>  <PUBCHEM_COORDINATE_TYPE>  (1) 
2
5
10

$$$$
