8561
     RDKit          3D

 22 22  0  0  0  0  0  0  0  0999 V2000
    0.0630    0.8504   -1.3673 O   0  0  0  0  0  0  0  0  0  0  0  0
    0.0752   -0.8505    1.3639 O   0  0  0  0  0  0  0  0  0  0  0  0
    0.5008   -1.3089   -2.0345 O   0  0  0  0  0  0  0  0  0  0  0  0
    0.5030    1.3087    2.0376 O   0  0  0  0  0  0  0  0  0  0  0  0
   -2.1455    2.4628   -0.3917 C   0  0  0  0  0  0  0  0  0  0  0  0
   -2.1432   -2.4634    0.3955 C   0  0  0  0  0  0  0  0  0  0  0  0
   -1.8715    2.1706   -1.8653 C   0  0  0  0  0  0  0  0  0  0  0  0
   -1.8672   -2.1724    1.8690 C   0  0  0  0  0  0  0  0  0  0  0  0
   -2.8765    3.7933   -0.2151 C   0  0  0  0  0  0  0  0  0  0  0  0
   -2.8735   -3.7943    0.2189 C   0  0  0  0  0  0  0  0  0  0  0  0
   -1.1811    0.8273   -2.0532 C   0  0  0  0  0  0  0  0  0  0  0  0
   -1.1774   -0.8286    2.0570 C   0  0  0  0  0  0  0  0  0  0  0  0
   -3.1811    4.0715    1.2483 C   0  0  0  0  0  0  0  0  0  0  0  0
   -3.1803   -4.0715   -1.2442 C   0  0  0  0  0  0  0  0  0  0  0  0
    2.0772   -0.1356   -0.6842 C   0  0  0  0  0  0  0  0  0  0  0  0
    2.0780    0.1377    0.6837 C   0  0  0  0  0  0  0  0  0  0  0  0
    0.8080   -0.2877   -1.4395 C   0  0  0  0  0  0  0  0  0  0  0  0
    0.8335    0.2854    1.4270 C   0  0  0  0  0  0  0  0  0  0  0  0
    3.2847   -0.2721   -1.3689 C   0  0  0  0  0  0  0  0  0  0  0  0
    3.2867    0.2744    1.3667 C   0  0  0  0  0  0  0  0  0  0  0  0
    4.4932   -0.1352   -0.6858 C   0  0  0  0  0  0  0  0  0  0  0  0
    4.4942    0.1380    0.6820 C   0  0  0  0  0  0  0  0  0  0  0  0
  1 11  1  0
  1 17  1  0
  2 12  1  0
  2 18  1  0
  3 17  2  0
  4 18  2  0
  5  7  1  0
  5  9  1  0
  6  8  1  0
  6 10  1  0
  7 11  1  0
  8 12  1  0
  9 13  1  0
 10 14  1  0
 15 16  2  0
 15 17  1  0
 15 19  1  0
 16 18  1  0
 16 20  1  0
 19 21  2  0
 20 22  2  0
 21 22  1  0
M  END
>  <PUBCHEM_COMPOUND_CID>  (1) 
8561

>  <PUBCHEM_CONFORMER_RMSD>  (1) 
1.2

>  <PUBCHEM_CONFORMER_DIVERSEORDER>  (1) 
1
19
16
6
40
59
3
58
52
56
49
14
20
45
17
26
4
18
38
2
39
5
55
35
13
53
44
47
11
32
33
29
25
7
22
28
21
41
31
57
34
12
51
50
48
30
37
27
42
24
10
46
36
8
43
54
15
23
9

>  <PUBCHEM_MMFF94_PARTIAL_CHARGES>  (1) 
18
1 -0.43
11 0.28
12 0.28
15 0.09
16 0.09
17 0.63
18 0.63
19 -0.15
2 -0.43
20 -0.15
21 -0.15
22 -0.15
3 -0.57
4 -0.57
45 0.15
46 0.15
47 0.15
48 0.15

>  <PUBCHEM_EFFECTIVE_ROTOR_COUNT>  (1) 
12

>  <PUBCHEM_PHARMACOPHORE_FEATURES>  (1) 
5
1 13 hydrophobe
1 14 hydrophobe
1 3 acceptor
1 4 acceptor
6 15 16 19 20 21 22 rings

>  <PUBCHEM_HEAVY_ATOM_COUNT>  (1) 
22

>  <PUBCHEM_ATOM_DEF_STEREO_COUNT>  (1) 
0

>  <PUBCHEM_ATOM_UDEF_STEREO_COUNT>  (1) 
0

>  <PUBCHEM_BOND_DEF_STEREO_COUNT>  (1) 
0

>  <PUBCHEM_BOND_UDEF_STEREO_COUNT>  (1) 
0

>  <PUBCHEM_ISOTOPIC_ATOM_COUNT>  (1) 
0

>  <PUBCHEM_COMPONENT_COUNT>  (1) 
1

>  <PUBCHEM_CACTVS_TAUTO_COUNT>  (1) 
1

>  <PUBCHEM_CONFORMER_ID>  (1) 
0000217100000001

>  <PUBCHEM_MMFF94_ENERGY>  (1) 
38.2876

>  <PUBCHEM_FEATURE_SELFOVERLAP>  (1) 
25.371

>  <PUBCHEM_SHAPE_FINGERPRINT>  (1) 
12293681 4 18270943731165682537
12400797 245 16557086634132070906
12788726 201 18260839240722994935
12841375 5 16964919321236764537
13134695 92 17759246584528635839
14251757 17 15767769106366935376
14617773 55 17095238155229455886
17980427 26 16619871737237993961
20261772 1 16444494289842757616
20600515 1 17463115087628211801
22620623 9 18333736823032393446
23419403 2 17843108462197733081
35225 105 18189876678925905113
427121 178 17900838045310357233
6438718 38 17896061886994728433
6442390 28 18195817267289283833
6786 2 18123197796870777979
81228 2 17821727268831691232
84936 31 10444049227884761527

>  <PUBCHEM_SHAPE_MULTIPOLES>  (1) 
429.27
6.74
4.85
2.38
6.2
0
0
-0.01
0
-11.03
-0.01
-0.4
0
-0.08

>  <PUBCHEM_SHAPE_SELFOVERLAP>  (1) 
857.048

>  <PUBCHEM_SHAPE_VOLUME>  (1) 
253.7

>  <PUBCHEM_COORDINATE_TYPE>  (1) 
2
5
10

$$$$
