8567
     RDKit          3D

 13 12  0  0  1  0  0  0  0  0999 V2000
   -0.3018    2.3198   -0.1965 O   0  0  0  0  0  0  0  0  0  0  0  0
   -0.9145   -0.0423   -1.7145 O   0  0  0  0  0  0  0  0  0  0  0  0
    2.3933    1.7714    0.2782 O   0  0  0  0  0  0  0  0  0  0  0  0
   -2.4238    0.2478    1.6007 O   0  0  0  0  0  0  0  0  0  0  0  0
   -3.0957   -2.0373    0.1037 O   0  0  0  0  0  0  0  0  0  0  0  0
    3.4288   -0.8347   -0.1839 N   0  0  0  0  0  0  0  0  0  0  0  0
    0.0918    1.0188    0.2367 C   0  0  0  0  0  0  0  0  0  0  0  0
   -0.9314   -0.0167   -0.2883 C   0  0  0  0  0  0  0  0  0  0  0  0
    1.5394    0.7493   -0.2307 C   0  0  0  0  0  0  0  0  0  0  0  0
   -2.3761    0.2704    0.1756 C   0  0  0  0  0  0  0  0  0  0  0  0
    2.0536   -0.6129    0.2587 C   0  0  0  0  0  0  0  0  0  0  0  0
   -3.3986   -0.7318   -0.3608 C   0  0  0  0  0  0  0  0  0  0  0  0
    3.9351   -2.1018    0.3210 C   0  0  0  0  0  0  0  0  0  0  0  0
  1  7  1  0
  2  8  1  0
  3  9  1  0
  4 10  1  0
  5 12  1  0
  6 11  1  0
  6 13  1  0
  7  8  1  0
  7  9  1  0
  8 10  1  0
  9 11  1  0
 10 12  1  0
M  END
>  <PUBCHEM_COMPOUND_CID>  (1) 
8567

>  <PUBCHEM_CONFORMER_RMSD>  (1) 
0.6

>  <PUBCHEM_CONFORMER_DIVERSEORDER>  (1) 
3
36
1
20
41
26
12
45
34
6
9
40
30
16
15
37
38
22
29
32
39
10
46
33
14
43
4
27
5
25
21
13
42
47
24
7
48
8
19
28
2
44
11
23
35
31
17
18

>  <PUBCHEM_MMFF94_PARTIAL_CHARGES>  (1) 
19
1 -0.68
10 0.28
11 0.27
12 0.28
13 0.27
2 -0.68
22 0.4
23 0.4
24 0.36
25 0.4
26 0.4
3 -0.68
30 0.4
4 -0.68
5 -0.68
6 -0.9
7 0.28
8 0.28
9 0.28

>  <PUBCHEM_EFFECTIVE_ROTOR_COUNT>  (1) 
6

>  <PUBCHEM_PHARMACOPHORE_FEATURES>  (1) 
12
1 1 acceptor
1 1 donor
1 2 acceptor
1 2 donor
1 3 acceptor
1 3 donor
1 4 acceptor
1 4 donor
1 5 acceptor
1 5 donor
1 6 cation
1 6 donor

>  <PUBCHEM_HEAVY_ATOM_COUNT>  (1) 
13

>  <PUBCHEM_ATOM_DEF_STEREO_COUNT>  (1) 
4

>  <PUBCHEM_ATOM_UDEF_STEREO_COUNT>  (1) 
0

>  <PUBCHEM_BOND_DEF_STEREO_COUNT>  (1) 
0

>  <PUBCHEM_BOND_UDEF_STEREO_COUNT>  (1) 
0

>  <PUBCHEM_ISOTOPIC_ATOM_COUNT>  (1) 
0

>  <PUBCHEM_COMPONENT_COUNT>  (1) 
1

>  <PUBCHEM_CACTVS_TAUTO_COUNT>  (1) 
1

>  <PUBCHEM_CONFORMER_ID>  (1) 
0000217700000003

>  <PUBCHEM_MMFF94_ENERGY>  (1) 
26.0917

>  <PUBCHEM_FEATURE_SELFOVERLAP>  (1) 
60.923

>  <PUBCHEM_SHAPE_FINGERPRINT>  (1) 
11769659 78 18342453802751669279
12006461 19 18412545392605527706
12897270 3 15357698586850065988
18186145 218 13551479176051814078
19422 9 18343026600822175866
20281407 28 18409730625742480290
20281475 54 18410297973847998602
20645477 70 18336537304844361127
20711983 138 18041284278963714369
20711985 344 17314498249655845821
20871998 22 18410569587458556384
20871999 31 14562824282522620491
22485316 2 18335699425428310426
23500284 214 10663809802196977550
3248919 1 17418383479987028669
528716 315 14273747243477900491

>  <PUBCHEM_SHAPE_MULTIPOLES>  (1) 
233.21
6.3
2.03
0.97
2.46
0.07
-0.04
-4.48
0.63
0.81
0.11
-0.56
0.01
-0.19

>  <PUBCHEM_SHAPE_SELFOVERLAP>  (1) 
434.88

>  <PUBCHEM_SHAPE_VOLUME>  (1) 
145.9

>  <PUBCHEM_COORDINATE_TYPE>  (1) 
2
5
10

$$$$
