8569
     RDKit          3D

 18 19  0  0  0  0  0  0  0  0999 V2000
   -4.4307    0.9777   -0.0562 O   0  0  0  0  0  0  0  0  0  0  0  0
   -1.5441   -2.8071    0.1504 O   0  0  0  0  0  0  0  0  0  0  0  0
    0.9498   -2.3600    0.2342 O   0  0  0  0  0  0  0  0  0  0  0  0
    2.0564   -0.2717   -2.1948 O   0  0  0  0  0  0  0  0  0  0  0  0
   -0.6156   -0.5958    0.1161 C   0  0  0  0  0  0  0  0  0  0  0  0
    1.9100   -0.2474    0.1996 C   0  0  0  0  0  0  0  0  0  0  0  0
    0.7569   -1.1367    0.1815 C   0  0  0  0  0  0  0  0  0  0  0  0
   -1.7020   -1.4541    0.1042 C   0  0  0  0  0  0  0  0  0  0  0  0
   -0.7798    0.7788    0.0725 C   0  0  0  0  0  0  0  0  0  0  0  0
   -3.1735    0.4594    0.0018 C   0  0  0  0  0  0  0  0  0  0  0  0
   -2.9905   -0.9227    0.0465 C   0  0  0  0  0  0  0  0  0  0  0  0
    2.5218    0.1559   -0.9873 C   0  0  0  0  0  0  0  0  0  0  0  0
   -2.0681    1.3101    0.0147 C   0  0  0  0  0  0  0  0  0  0  0  0
    2.4027    0.2005    1.4253 C   0  0  0  0  0  0  0  0  0  0  0  0
    3.6262    1.0074   -0.9484 C   0  0  0  0  0  0  0  0  0  0  0  0
    3.5071    1.0517    1.4641 C   0  0  0  0  0  0  0  0  0  0  0  0
    4.1189    1.4550    0.2775 C   0  0  0  0  0  0  0  0  0  0  0  0
   -4.5456    2.3991   -0.1016 C   0  0  0  0  0  0  0  0  0  0  0  0
  1 10  1  0
  1 18  1  0
  2  8  1  0
  3  7  2  0
  4 12  1  0
  5  7  1  0
  5  8  2  0
  5  9  1  0
  6  7  1  0
  6 12  2  0
  6 14  1  0
  8 11  1  0
  9 13  2  0
 10 11  2  0
 10 13  1  0
 12 15  1  0
 14 16  2  0
 15 17  2  0
 16 17  1  0
M  END
>  <PUBCHEM_COMPOUND_CID>  (1) 
8569

>  <PUBCHEM_CONFORMER_RMSD>  (1) 
0.6

>  <PUBCHEM_CONFORMER_DIVERSEORDER>  (1) 
1
24
30
11
27
13
32
12
14
20
9
23
31
10
17
18
6
7
29
28
26
8
25
5
19
21
4
3
22
16
15
2

>  <PUBCHEM_MMFF94_PARTIAL_CHARGES>  (1) 
27
1 -0.36
10 0.08
11 -0.15
12 0.08
13 -0.15
14 -0.15
15 -0.15
16 -0.15
17 -0.15
18 0.28
19 0.15
2 -0.53
20 0.15
21 0.15
22 0.15
23 0.15
24 0.15
25 0.15
26 0.45
27 0.45
3 -0.57
4 -0.53
5 0.09
6 0.09
7 0.4
8 0.08
9 -0.15

>  <PUBCHEM_EFFECTIVE_ROTOR_COUNT>  (1) 
3

>  <PUBCHEM_PHARMACOPHORE_FEATURES>  (1) 
6
1 1 acceptor
1 2 donor
1 3 acceptor
1 4 donor
6 5 8 9 10 11 13 rings
6 6 12 14 15 16 17 rings

>  <PUBCHEM_HEAVY_ATOM_COUNT>  (1) 
18

>  <PUBCHEM_ATOM_DEF_STEREO_COUNT>  (1) 
0

>  <PUBCHEM_ATOM_UDEF_STEREO_COUNT>  (1) 
0

>  <PUBCHEM_BOND_DEF_STEREO_COUNT>  (1) 
0

>  <PUBCHEM_BOND_UDEF_STEREO_COUNT>  (1) 
0

>  <PUBCHEM_ISOTOPIC_ATOM_COUNT>  (1) 
0

>  <PUBCHEM_COMPONENT_COUNT>  (1) 
1

>  <PUBCHEM_CACTVS_TAUTO_COUNT>  (1) 
24

>  <PUBCHEM_CONFORMER_ID>  (1) 
0000217900000001

>  <PUBCHEM_MMFF94_ENERGY>  (1) 
68.5613

>  <PUBCHEM_FEATURE_SELFOVERLAP>  (1) 
30.446

>  <PUBCHEM_SHAPE_FINGERPRINT>  (1) 
10465860 228 18187925041185699986
10498660 4 18413389826093997777
10646746 165 18411698820302218712
11132069 177 18334856138427187009
11471102 22 14707473837707884098
11543360 7 16271915022298781229
11640471 11 17459762599550262524
11725454 13 17201606009649031866
12173636 292 18410570657147980541
12236239 1 17603579785821006616
12403814 3 17385715911858310341
12500047 106 18413387656924100870
12788726 201 17390244945823598403
13140716 1 17831021595725921187
13764800 53 18409455812033290179
13965767 371 17895464839438635284
14123255 52 18409729543305466925
14739800 52 17832133193803689888
15375358 24 18130785676473841305
15775835 57 18113899390116865600
16945 1 18337392750697426243
1741750 31 18411419501367344827
1798214 55 18410293588380655153
18186145 218 18059867146517478833
18222031 100 8285902580944207953
200 152 15123516903932671184
20510252 161 18269280217138149939
20645477 56 18341056293370870265
20645477 70 16702034071052909614
20715895 44 17461982290468791157
23402539 116 18271237318187538252
23557571 272 18200321051019726518
23559900 14 18343308063605048876
238 59 16630246930768098148
2748010 2 18337119956050184791
2838139 119 17981606289119937780
3060560 45 16343698838015369476
3472631 163 18336265733798764013
350125 39 18120093875134109680
4028521 119 18202846547846116289
474 4 17603872203762548673
495365 180 17560510720943452382
5104073 3 18263366893939284369
5939293 188 18340200912117238680
7364860 26 18197777704805802130
77492 1 17459180949404231490
7808743 9 18336267954608072452
8988823 20 14057300730704090069

>  <PUBCHEM_SHAPE_MULTIPOLES>  (1) 
346.95
8.07
2.23
1.17
2.55
0.74
-0.27
-5.72
0.09
1.79
0.15
-1.49
-0.12
0.32

>  <PUBCHEM_SHAPE_SELFOVERLAP>  (1) 
756.966

>  <PUBCHEM_SHAPE_VOLUME>  (1) 
188.6

>  <PUBCHEM_COORDINATE_TYPE>  (1) 
2
5
10

$$$$
