8578
     RDKit          3D

 20 22  0  0  0  0  0  0  0  0999 V2000
    0.3977    0.2523   -0.5389 N   0  0  0  0  0  0  0  0  0  0  0  0
   -0.2261    2.9689   -0.3073 N   0  0  0  0  0  0  0  0  0  0  0  0
    1.0007    0.0876    0.5445 N   0  0  0  0  0  0  0  0  0  0  0  0
   -1.9393   -0.3406   -0.1522 C   0  0  0  0  0  0  0  0  0  0  0  0
   -3.2691    0.0717    0.1021 C   0  0  0  0  0  0  0  0  0  0  0  0
   -0.9332    0.6300   -0.2868 C   0  0  0  0  0  0  0  0  0  0  0  0
   -1.2337    1.9876   -0.1721 C   0  0  0  0  0  0  0  0  0  0  0  0
   -3.5535    1.4424    0.2143 C   0  0  0  0  0  0  0  0  0  0  0  0
   -1.6548   -1.7112   -0.2644 C   0  0  0  0  0  0  0  0  0  0  0  0
   -4.2752   -0.8988    0.2368 C   0  0  0  0  0  0  0  0  0  0  0  0
   -2.5414    2.3930    0.0780 C   0  0  0  0  0  0  0  0  0  0  0  0
   -2.6667   -2.6619   -0.1276 C   0  0  0  0  0  0  0  0  0  0  0  0
   -3.9744   -2.2564    0.1225 C   0  0  0  0  0  0  0  0  0  0  0  0
    2.3308   -0.2901    0.2930 C   0  0  0  0  0  0  0  0  0  0  0  0
    3.3281    0.6725    0.1605 C   0  0  0  0  0  0  0  0  0  0  0  0
    4.6431    0.2792   -0.0883 C   0  0  0  0  0  0  0  0  0  0  0  0
    2.6392   -1.6432    0.1783 C   0  0  0  0  0  0  0  0  0  0  0  0
    3.0174    2.1287    0.2813 C   0  0  0  0  0  0  0  0  0  0  0  0
    4.9561   -1.0752   -0.2036 C   0  0  0  0  0  0  0  0  0  0  0  0
    3.9542   -2.0364   -0.0702 C   0  0  0  0  0  0  0  0  0  0  0  0
  1  3  2  0
  1  6  1  0
  2  7  1  0
  3 14  1  0
  4  5  2  0
  4  6  1  0
  4  9  1  0
  5  8  1  0
  5 10  1  0
  6  7  2  0
  7 11  1  0
  8 11  2  0
  9 12  2  0
 10 13  2  0
 12 13  1  0
 14 15  2  0
 14 17  1  0
 15 16  1  0
 15 18  1  0
 16 19  2  0
 17 20  2  0
 19 20  1  0
M  END
>  <PUBCHEM_COMPOUND_CID>  (1) 
8578

>  <PUBCHEM_CONFORMER_RMSD>  (1) 
0.6

>  <PUBCHEM_CONFORMER_DIVERSEORDER>  (1) 
5
3
6
4
1
2

>  <PUBCHEM_MMFF94_PARTIAL_CHARGES>  (1) 
30
1 -0.18
10 -0.15
11 -0.15
12 -0.15
13 -0.15
14 0.18
15 -0.14
16 -0.15
17 -0.15
18 0.14
19 -0.15
2 -0.9
20 -0.15
21 0.15
22 0.15
23 0.15
24 0.15
25 0.15
26 0.15
27 0.15
28 0.15
29 0.4
3 -0.18
30 0.4
34 0.15
35 0.15
6 0.18
7 0.1
8 -0.15
9 -0.15

>  <PUBCHEM_EFFECTIVE_ROTOR_COUNT>  (1) 
2

>  <PUBCHEM_PHARMACOPHORE_FEATURES>  (1) 
5
1 2 cation
1 2 donor
6 14 15 16 17 19 20 rings
6 4 5 6 7 8 11 rings
6 4 5 9 10 12 13 rings

>  <PUBCHEM_HEAVY_ATOM_COUNT>  (1) 
20

>  <PUBCHEM_ATOM_DEF_STEREO_COUNT>  (1) 
0

>  <PUBCHEM_ATOM_UDEF_STEREO_COUNT>  (1) 
0

>  <PUBCHEM_BOND_DEF_STEREO_COUNT>  (1) 
0

>  <PUBCHEM_BOND_UDEF_STEREO_COUNT>  (1) 
0

>  <PUBCHEM_ISOTOPIC_ATOM_COUNT>  (1) 
0

>  <PUBCHEM_COMPONENT_COUNT>  (1) 
1

>  <PUBCHEM_CACTVS_TAUTO_COUNT>  (1) 
1

>  <PUBCHEM_CONFORMER_ID>  (1) 
0000218200000005

>  <PUBCHEM_MMFF94_ENERGY>  (1) 
72.9598

>  <PUBCHEM_FEATURE_SELFOVERLAP>  (1) 
25.398

>  <PUBCHEM_SHAPE_FINGERPRINT>  (1) 
10369192 42 16983752207696414176
10616163 171 18411982451089177158
11552529 35 17917428778315132275
12107183 9 17833550094195906674
12553582 1 18337942519253986235
12633257 1 18129953273262412945
13140716 1 18412545388114991969
13167823 11 18408322168585580466
13544653 18 18262802985654494487
138480 1 15095923143452966652
14178342 30 18264751196079188026
14341114 176 18413113840180034152
14420673 8 18051134688174775318
14790565 3 17907583523509367249
14866123 147 16688240401520126530
15042514 8 18409174303361472641
15196674 1 18410573989446418434
15352361 1 18410291449349674767
17492 89 18410012130790048778
17804303 29 18341897367978507005
17834074 16 18412262822438147026
1813 80 17458625643980998564
19141452 34 18411422778438090425
20291156 8 18408885165361239548
20510252 161 18343021056325456049
21065198 57 18412261697172637192
21267235 1 18409738382174212227
21673915 165 18410011065685001962
221490 88 18410859880314316706
2297311 6 18341344339594861494
23402539 116 18343576335804831935
23557571 272 18343591728630049508
23559900 14 18412255147257983016
2871803 45 18334569170314171682
335352 9 18267021656913909533
4214541 1 18411419479686708402
5104073 3 18341327817103431786
58051976 100 18411700950500385734
7097593 13 17827907443477517106
77779 3 18411419492840642098
9709674 26 18342741762913024646

>  <PUBCHEM_SHAPE_MULTIPOLES>  (1) 
396.65
9.69
3.1
0.66
6.04
0.5
0
-3.65
0.37
-1.59
-0.09
0.01
0
0.12

>  <PUBCHEM_SHAPE_SELFOVERLAP>  (1) 
877.861

>  <PUBCHEM_SHAPE_VOLUME>  (1) 
212.1

>  <PUBCHEM_COORDINATE_TYPE>  (1) 
2
5
10

$$$$
