8592
     RDKit          3D

 13 14  0  0  0  0  0  0  0  0999 V2000
   -1.1713   -2.0743    0.1951 O   0  0  0  0  0  0  0  0  0  0  0  0
   -3.6379   -0.1808   -0.7891 O   0  0  0  0  0  0  0  0  0  0  0  0
   -3.0739   -0.0584    0.3072 N   0  0  0  0  0  0  0  0  0  0  0  0
    0.5915   -0.4481    0.0508 C   0  0  0  0  0  0  0  0  0  0  0  0
    0.9852    0.9105    0.0067 C   0  0  0  0  0  0  0  0  0  0  0  0
   -0.7732   -0.7646    0.1510 C   0  0  0  0  0  0  0  0  0  0  0  0
    0.0028    1.9126    0.0639 C   0  0  0  0  0  0  0  0  0  0  0  0
    1.5739   -1.4500   -0.0068 C   0  0  0  0  0  0  0  0  0  0  0  0
    2.3497    1.2272   -0.0938 C   0  0  0  0  0  0  0  0  0  0  0  0
   -1.7358    0.2439    0.2073 C   0  0  0  0  0  0  0  0  0  0  0  0
   -1.3485    1.5800    0.1636 C   0  0  0  0  0  0  0  0  0  0  0  0
    2.9251   -1.1172   -0.1063 C   0  0  0  0  0  0  0  0  0  0  0  0
    3.3124    0.2189   -0.1496 C   0  0  0  0  0  0  0  0  0  0  0  0
  1  6  1  0
  2  3  2  0
  3 10  1  0
  4  5  1  0
  4  6  2  0
  4  8  1  0
  5  7  2  0
  5  9  1  0
  6 10  1  0
  7 11  1  0
  8 12  2  0
  9 13  2  0
 10 11  2  0
 12 13  1  0
M  END
>  <PUBCHEM_COMPOUND_CID>  (1) 
8592

>  <PUBCHEM_CONFORMER_RMSD>  (1) 
0.4

>  <PUBCHEM_CONFORMER_DIVERSEORDER>  (1) 
2
1

>  <PUBCHEM_MMFF94_PARTIAL_CHARGES>  (1) 
18
1 -0.53
10 0.3
11 -0.15
12 -0.15
13 -0.15
14 0.15
15 0.15
16 0.15
17 0.15
18 0.15
19 0.15
2 -0.16
20 0.45
3 -0.14
6 0.08
7 -0.15
8 -0.15
9 -0.15

>  <PUBCHEM_EFFECTIVE_ROTOR_COUNT>  (1) 
1

>  <PUBCHEM_PHARMACOPHORE_FEATURES>  (1) 
3
1 1 donor
6 4 5 6 7 10 11 rings
6 4 5 8 9 12 13 rings

>  <PUBCHEM_HEAVY_ATOM_COUNT>  (1) 
13

>  <PUBCHEM_ATOM_DEF_STEREO_COUNT>  (1) 
0

>  <PUBCHEM_ATOM_UDEF_STEREO_COUNT>  (1) 
0

>  <PUBCHEM_BOND_DEF_STEREO_COUNT>  (1) 
0

>  <PUBCHEM_BOND_UDEF_STEREO_COUNT>  (1) 
0

>  <PUBCHEM_ISOTOPIC_ATOM_COUNT>  (1) 
0

>  <PUBCHEM_COMPONENT_COUNT>  (1) 
1

>  <PUBCHEM_CACTVS_TAUTO_COUNT>  (1) 
4

>  <PUBCHEM_CONFORMER_ID>  (1) 
0000219000000002

>  <PUBCHEM_MMFF94_ENERGY>  (1) 
41.9508

>  <PUBCHEM_FEATURE_SELFOVERLAP>  (1) 
15.249

>  <PUBCHEM_SHAPE_FINGERPRINT>  (1) 
10967382 1 18410576205902763786
11132069 177 18339637940635304528
11206711 2 18263649463294118780
11471102 20 18410007732595136613
12032990 46 18409739455921142147
12524768 44 18412554197151055094
13380535 76 18410854382392453650
13897977 150 18267021845913874480
14144814 61 18410859836852817448
14325111 11 18410858720024475552
14576447 43 18057307582591317999
14911166 2 18409449193367276684
14993402 34 18343018899961716567
16945 1 18410300219883870328
17844478 74 17967544466795668729
193761 8 17690281929278322032
20201158 50 18409449184914621786
20588541 1 18410296938354620464
21501502 16 18267590108957975888
21501925 9 18336817598989603226
2334 1 17834399299303221736
23402539 116 18342446019943634670
23402655 69 18341043047802674909
23463225 33 18408605829605296416
23552423 10 18261400988111979440
23559900 14 18198073663266920636
2748010 2 17978514457330098280
5084963 1 18129659695009748738
528886 8 18411416254340394522
53812653 166 18199747110640822224
53812654 25 18201142313265129502
63268167 104 18410859879744611097
7364860 26 18343585170537033968
8809292 202 18261118499470674970

>  <PUBCHEM_SHAPE_MULTIPOLES>  (1) 
250.81
4.82
1.89
0.65
0.84
0.04
0.02
-0.57
0.6
-0.14
-0.08
0.12
0
-0.05

>  <PUBCHEM_SHAPE_SELFOVERLAP>  (1) 
554.947

>  <PUBCHEM_SHAPE_VOLUME>  (1) 
135.2

>  <PUBCHEM_COORDINATE_TYPE>  (1) 
2
5
10

$$$$
