8614
     RDKit          3D

 14 14  0  0  0  0  0  0  0  0999 V2000
   -0.8574   -2.8196   -0.2384 I   0  0  0  0  0  0  0  0  0  0  0  0
    0.6284   -0.2516   -1.7476 O   0  0  0  0  0  0  0  0  0  0  0  0
    2.7238   -0.9121    1.0650 O   0  0  0  0  0  0  0  0  0  0  0  0
    4.6492   -0.0277    0.2534 O   0  0  0  0  0  0  0  0  0  0  0  0
    1.1804    0.9808    0.1374 N   0  0  0  0  0  0  0  0  0  0  0  0
   -1.1060    0.2420   -0.2488 C   0  0  0  0  0  0  0  0  0  0  0  0
    0.2853    0.2886   -0.6835 C   0  0  0  0  0  0  0  0  0  0  0  0
    2.5844    1.1354   -0.1686 C   0  0  0  0  0  0  0  0  0  0  0  0
   -1.7802   -0.9546   -0.0053 C   0  0  0  0  0  0  0  0  0  0  0  0
   -1.7636    1.4603   -0.0785 C   0  0  0  0  0  0  0  0  0  0  0  0
   -3.1122   -0.9329    0.4084 C   0  0  0  0  0  0  0  0  0  0  0  0
   -3.0956    1.4820    0.3351 C   0  0  0  0  0  0  0  0  0  0  0  0
   -3.7699    0.2853    0.5784 C   0  0  0  0  0  0  0  0  0  0  0  0
    3.4333    0.0241    0.3930 C   0  0  0  0  0  0  0  0  0  0  0  0
  1  9  1  0
  2  7  2  0
  3 14  1  0
  4 14  2  0
  5  7  1  0
  5  8  1  0
  6  7  1  0
  6  9  2  0
  6 10  1  0
  8 14  1  0
  9 11  1  0
 10 12  2  0
 11 13  2  0
 12 13  1  0
M  END
>  <PUBCHEM_COMPOUND_CID>  (1) 
8614

>  <PUBCHEM_CONFORMER_RMSD>  (1) 
0.6

>  <PUBCHEM_CONFORMER_DIVERSEORDER>  (1) 
2
18
13
15
6
14
7
4
12
1
17
9
10
16
11
3
8
5

>  <PUBCHEM_MMFF94_PARTIAL_CHARGES>  (1) 
20
1 -0.08
10 -0.15
11 -0.15
12 -0.15
13 -0.15
14 0.66
17 0.37
18 0.15
19 0.15
2 -0.57
20 0.15
21 0.15
22 0.5
3 -0.65
4 -0.57
5 -0.73
6 0.09
7 0.54
8 0.36
9 0.08

>  <PUBCHEM_EFFECTIVE_ROTOR_COUNT>  (1) 
4

>  <PUBCHEM_PHARMACOPHORE_FEATURES>  (1) 
7
1 1 hydrophobe
1 2 acceptor
1 3 acceptor
1 4 acceptor
1 5 donor
3 3 4 14 anion
6 6 9 10 11 12 13 rings

>  <PUBCHEM_HEAVY_ATOM_COUNT>  (1) 
14

>  <PUBCHEM_ATOM_DEF_STEREO_COUNT>  (1) 
0

>  <PUBCHEM_ATOM_UDEF_STEREO_COUNT>  (1) 
0

>  <PUBCHEM_BOND_DEF_STEREO_COUNT>  (1) 
0

>  <PUBCHEM_BOND_UDEF_STEREO_COUNT>  (1) 
0

>  <PUBCHEM_ISOTOPIC_ATOM_COUNT>  (1) 
0

>  <PUBCHEM_COMPONENT_COUNT>  (1) 
1

>  <PUBCHEM_CACTVS_TAUTO_COUNT>  (1) 
2

>  <PUBCHEM_CONFORMER_ID>  (1) 
000021A600000002

>  <PUBCHEM_MMFF94_ENERGY>  (1) 
34.2478

>  <PUBCHEM_FEATURE_SELFOVERLAP>  (1) 
35.579

>  <PUBCHEM_SHAPE_FINGERPRINT>  (1) 
12119455 92 17060337405184316365
12251169 10 18410292536102975244
124424 183 18341890792515809409
12500047 106 18342168973315602338
13380535 76 18272654545414884343
13581323 91 18335422387020824333
14144814 61 18408602560913781112
14577589 140 18259982678099330695
14965852 173 18339357586586938226
15219456 202 17917440773910422261
15375462 189 17895185585318251848
15669948 3 18268155446644039335
15775835 57 18335706030845230475
16945 1 18269854132517364215
17804303 29 18412268358577132060
19422 9 18041001769163492840
20361792 2 16008744736193498038
20510252 161 18201443558092524033
20645464 45 18131078129845610685
20645476 183 17460620214225025935
20871998 184 18198632218724758975
22445834 79 18187077360564856178
23402539 116 18272925064378195007
23463225 33 18261111859155394192
23559900 14 18199771162536658766
23598291 2 17823146781261142606
23598294 1 18194973056611599003
257057 1 17407108233295153455
2748010 2 18194141637401439847
305870 269 18267869380727116499
42 15 18113060432637793137
43471831 8 18335985272771906067
474 4 13758064234246614018
5706482 22 18342174466837509475
58807428 26 18339653239382945483
69090 78 18412541033266222851
7364860 26 17982458100928848103

>  <PUBCHEM_SHAPE_MULTIPOLES>  (1) 
277.46
6.71
2.2
0.95
5.35
1.74
0.21
-1.39
-2
-1.32
0.07
0.22
0.14
-0.27

>  <PUBCHEM_SHAPE_SELFOVERLAP>  (1) 
553.944

>  <PUBCHEM_SHAPE_VOLUME>  (1) 
166.8

>  <PUBCHEM_COORDINATE_TYPE>  (1) 
2
5
10

$$$$
