8615
     RDKit          3D

 18 19  0  0  0  0  0  0  0  0999 V2000
    0.0317    1.0048   -0.6366 O   0  0  0  0  0  0  0  0  0  0  0  0
   -1.4597    2.4758    0.3177 O   0  0  0  0  0  0  0  0  0  0  0  0
   -3.2701    1.0557    1.8439 N   0  0  0  0  0  0  0  0  0  0  0  0
    2.3192    1.4696   -1.2704 C   0  0  0  0  0  0  0  0  0  0  0  0
    2.8897    0.3315   -0.4596 C   0  0  0  0  0  0  0  0  0  0  0  0
    1.0349    2.0258   -0.6655 C   0  0  0  0  0  0  0  0  0  0  0  0
    3.7928    0.6063    0.5553 C   0  0  0  0  0  0  0  0  0  0  0  0
    2.4999   -0.9678   -0.7438 C   0  0  0  0  0  0  0  0  0  0  0  0
   -2.1147    0.2302   -0.1434 C   0  0  0  0  0  0  0  0  0  0  0  0
   -3.1206    0.0999    0.8142 C   0  0  0  0  0  0  0  0  0  0  0  0
   -1.1847    1.3521   -0.1182 C   0  0  0  0  0  0  0  0  0  0  0  0
    4.3200   -0.4453    1.3049 C   0  0  0  0  0  0  0  0  0  0  0  0
    3.0271   -2.0194    0.0059 C   0  0  0  0  0  0  0  0  0  0  0  0
   -1.9839   -0.7249   -1.1516 C   0  0  0  0  0  0  0  0  0  0  0  0
    3.9370   -1.7581    1.0303 C   0  0  0  0  0  0  0  0  0  0  0  0
   -3.9956   -0.9855    0.7635 C   0  0  0  0  0  0  0  0  0  0  0  0
   -2.8587   -1.8102   -1.2021 C   0  0  0  0  0  0  0  0  0  0  0  0
   -3.8644   -1.9405   -0.2447 C   0  0  0  0  0  0  0  0  0  0  0  0
  1  6  1  0
  1 11  1  0
  2 11  2  0
  3 10  1  0
  4  5  1  0
  4  6  1  0
  5  7  2  0
  5  8  1  0
  7 12  1  0
  8 13  2  0
  9 10  2  0
  9 11  1  0
  9 14  1  0
 10 16  1  0
 12 15  2  0
 13 15  1  0
 14 17  2  0
 16 18  2  0
 17 18  1  0
M  END
>  <PUBCHEM_COMPOUND_CID>  (1) 
8615

>  <PUBCHEM_CONFORMER_RMSD>  (1) 
0.6

>  <PUBCHEM_CONFORMER_DIVERSEORDER>  (1) 
1
181
152
54
50
185
35
146
16
176
201
159
124
65
39
46
195
29
171
69
116
168
92
5
33
188
173
61
107
145
123
96
6
143
227
111
220
149
83
138
106
36
136
71
17
163
157
140
164
128
196
147
73
122
91
137
4
58
102
127
28
198
172
34
38
177
202
75
142
26
178
115
187
126
223
7
76
158
13
48
207
105
70
139
18
154
99
141
9
134
150
27
183
103
144
44
37
224
30
209
222
63
197
60
11
194
184
169
64
77
78
87
119
47
213
43
205
165
98
228
20
49
113
15
10
40
85
72
51
156
110
230
148
53
130
41
193
101
55
174
12
23
179
117
232
161
94
155
79
81
62
131
109
21
132
52
160
68
66
167
95
2
114
206
133
182
211
89
42
86
100
88
57
93
151
97
214
153
8
166
212
32
189
210
120
112
135
219
90
19
125
67
229
199
104
14
225
175
231
215
208
31
3
82
22
226
74
217
121
118
180
191
200
108
218
162
129
186
190
80
204
221
45
192
56
84
216
203
25
24
59
170

>  <PUBCHEM_MMFF94_PARTIAL_CHARGES>  (1) 
29
1 -0.43
10 0.1
11 0.63
12 -0.15
13 -0.15
14 -0.15
15 -0.15
16 -0.15
17 -0.15
18 -0.15
2 -0.57
23 0.15
24 0.15
25 0.15
26 0.15
27 0.15
28 0.15
29 0.15
3 -0.9
30 0.15
31 0.15
32 0.4
33 0.4
4 0.14
5 -0.14
6 0.28
7 -0.15
8 -0.15
9 0.09

>  <PUBCHEM_EFFECTIVE_ROTOR_COUNT>  (1) 
5

>  <PUBCHEM_PHARMACOPHORE_FEATURES>  (1) 
5
1 2 acceptor
1 3 cation
1 3 donor
6 5 7 8 12 13 15 rings
6 9 10 14 16 17 18 rings

>  <PUBCHEM_HEAVY_ATOM_COUNT>  (1) 
18

>  <PUBCHEM_ATOM_DEF_STEREO_COUNT>  (1) 
0

>  <PUBCHEM_ATOM_UDEF_STEREO_COUNT>  (1) 
0

>  <PUBCHEM_BOND_DEF_STEREO_COUNT>  (1) 
0

>  <PUBCHEM_BOND_UDEF_STEREO_COUNT>  (1) 
0

>  <PUBCHEM_ISOTOPIC_ATOM_COUNT>  (1) 
0

>  <PUBCHEM_COMPONENT_COUNT>  (1) 
1

>  <PUBCHEM_CACTVS_TAUTO_COUNT>  (1) 
2

>  <PUBCHEM_CONFORMER_ID>  (1) 
000021A700000001

>  <PUBCHEM_MMFF94_ENERGY>  (1) 
59.9184

>  <PUBCHEM_FEATURE_SELFOVERLAP>  (1) 
25.371

>  <PUBCHEM_SHAPE_FINGERPRINT>  (1) 
11118852 30 18272087249086701230
11137873 295 17749102296971679093
11370993 144 17273979034728177706
11578080 2 18267563849613207685
12363563 72 17603583011103997528
12553582 1 18411426141080784100
12596599 1 18411990130474819731
12633257 1 16917060092277029506
12824470 246 18268711800044723399
14123260 362 9943805607768962251
14178342 30 18267300937542250060
1420 369 18334855030436569946
14251757 5 16538213113462869038
14341114 328 17488736904385503080
14848160 33 17894627080344991898
15375462 189 18339931527019025629
1813 80 17894922831740208477
19433438 48 18413103948564532794
20291156 8 18335703819169161958
20442098 301 18341616988418917068
20645477 70 17604426417773433148
212916 134 17345492392211917073
21475661 188 12605202043376183835
21864079 5 9655584014757065470
2255824 54 18046636873593702132
22646028 28 18260545628010605978
235170 7 14851896841478872778
23559900 14 16772418199614062781
339767 52 18337940264295675723
4921388 177 14779551179810312401
5161694 15 15719382945328454630
7064713 232 18060139803900203923
7097593 13 18340775840390699708
85463 6 18130211744410136407
90316 7 18342468014872681497

>  <PUBCHEM_SHAPE_MULTIPOLES>  (1) 
353.71
9.15
2.42
1.35
1.33
0.2
0.2
-4.5
2.81
0.05
-0.21
-0.25
0.01
-1.45

>  <PUBCHEM_SHAPE_SELFOVERLAP>  (1) 
754.073

>  <PUBCHEM_SHAPE_VOLUME>  (1) 
195.8

>  <PUBCHEM_COORDINATE_TYPE>  (1) 
2
5
10

$$$$
