8620
     RDKit          3D

 12 12  0  0  0  0  0  0  0  0999 V2000
   -1.5553    2.7280   -0.0001 Cl  0  0  0  0  0  0  0  0  0  0  0  0
   -1.5496   -2.7312   -0.0002 Cl  0  0  0  0  0  0  0  0  0  0  0  0
    3.1416    0.0032   -0.0001 Cl  0  0  0  0  0  0  0  0  0  0  0  0
    1.5785   -2.7151    0.0000 Cl  0  0  0  0  0  0  0  0  0  0  0  0
    1.5728    2.7184    0.0000 Cl  0  0  0  0  0  0  0  0  0  0  0  0
   -3.2033   -0.0033    0.0000 S   0  0  0  0  0  0  0  0  0  0  0  0
   -1.3924   -0.0014    0.0001 C   0  0  0  0  0  0  0  0  0  0  0  0
   -0.6961    1.2072    0.0001 C   0  0  0  0  0  0  0  0  0  0  0  0
   -0.6936   -1.2087    0.0002 C   0  0  0  0  0  0  0  0  0  0  0  0
    0.7013   -1.2072    0.0002 C   0  0  0  0  0  0  0  0  0  0  0  0
    0.6988    1.2087    0.0001 C   0  0  0  0  0  0  0  0  0  0  0  0
    1.3974    0.0014    0.0000 C   0  0  0  0  0  0  0  0  0  0  0  0
  1  8  1  0
  2  9  1  0
  3 12  1  0
  4 10  1  0
  5 11  1  0
  6  7  1  0
  7  8  2  0
  7  9  1  0
  8 11  1  0
  9 10  2  0
 10 12  1  0
 11 12  2  0
M  END
>  <PUBCHEM_COMPOUND_CID>  (1) 
8620

>  <PUBCHEM_CONFORMER_RMSD>  (1) 
0.4

>  <PUBCHEM_CONFORMER_DIVERSEORDER>  (1) 
1

>  <PUBCHEM_MMFF94_PARTIAL_CHARGES>  (1) 
13
1 -0.18
10 0.18
11 0.18
12 0.18
13 0.18
2 -0.18
3 -0.18
4 -0.18
5 -0.18
6 -0.28
7 0.1
8 0.18
9 0.18

>  <PUBCHEM_EFFECTIVE_ROTOR_COUNT>  (1) 
0

>  <PUBCHEM_PHARMACOPHORE_FEATURES>  (1) 
1
6 7 8 9 10 11 12 rings

>  <PUBCHEM_HEAVY_ATOM_COUNT>  (1) 
12

>  <PUBCHEM_ATOM_DEF_STEREO_COUNT>  (1) 
0

>  <PUBCHEM_ATOM_UDEF_STEREO_COUNT>  (1) 
0

>  <PUBCHEM_BOND_DEF_STEREO_COUNT>  (1) 
0

>  <PUBCHEM_BOND_UDEF_STEREO_COUNT>  (1) 
0

>  <PUBCHEM_ISOTOPIC_ATOM_COUNT>  (1) 
0

>  <PUBCHEM_COMPONENT_COUNT>  (1) 
1

>  <PUBCHEM_CACTVS_TAUTO_COUNT>  (1) 
2

>  <PUBCHEM_CONFORMER_ID>  (1) 
000021AC00000001

>  <PUBCHEM_MMFF94_ENERGY>  (1) 
33.9684

>  <PUBCHEM_FEATURE_SELFOVERLAP>  (1) 
5.074

>  <PUBCHEM_SHAPE_FINGERPRINT>  (1) 
10967382 1 18410855468760307397
11206711 2 18337674122378715861
12423570 1 9277396003851580716
13140716 1 18266458895859843522
16945 1 18410856563934756871
193761 8 18266457607512079116
20588541 1 18410577283707641367
21501502 16 18122344571098800449
2334 1 17978510067699286023
23526114 1 18122344854550811327
23552423 10 18118400893657556430
23559900 14 18342465889575702068
241688 4 17906453229580877281
2748010 2 18122624942242529375
66348 1 18410855438653325312

>  <PUBCHEM_SHAPE_MULTIPOLES>  (1) 
260.15
3.76
3.66
0.64
0.18
0
0
0
0
-0.07
0
0.01
0
0

>  <PUBCHEM_SHAPE_SELFOVERLAP>  (1) 
489.754

>  <PUBCHEM_SHAPE_VOLUME>  (1) 
161.5

>  <PUBCHEM_COORDINATE_TYPE>  (1) 
2
5
10

$$$$
