8656
     RDKit          3D

 12 12  0  0  0  0  0  0  0  0999 V2000
    2.9344    1.1839    0.0021 O   0  0  0  0  0  0  0  0  0  0  0  0
    1.4284   -0.6294   -0.0003 N   0  0  0  0  0  0  0  0  0  0  0  0
   -0.9969   -0.7761    0.0000 C   0  0  0  0  0  0  0  0  0  0  0  0
   -2.2398   -0.1430    0.0001 C   0  0  0  0  0  0  0  0  0  0  0  0
    0.1729   -0.0161   -0.0003 C   0  0  0  0  0  0  0  0  0  0  0  0
    0.0994    1.3769   -0.0006 C   0  0  0  0  0  0  0  0  0  0  0  0
   -2.3131    1.2500   -0.0001 C   0  0  0  0  0  0  0  0  0  0  0  0
   -0.9233   -2.2708    0.0004 C   0  0  0  0  0  0  0  0  0  0  0  0
   -1.1435    2.0100   -0.0004 C   0  0  0  0  0  0  0  0  0  0  0  0
   -3.5076   -0.9327    0.0005 C   0  0  0  0  0  0  0  0  0  0  0  0
    2.6877   -0.0178   -0.0007 C   0  0  0  0  0  0  0  0  0  0  0  0
    3.8014   -1.0348   -0.0006 C   0  0  0  0  0  0  0  0  0  0  0  0
  1 11  2  0
  2  5  1  0
  2 11  1  0
  3  4  2  0
  3  5  1  0
  3  8  1  0
  4  7  1  0
  4 10  1  0
  5  6  2  0
  6  9  1  0
  7  9  2  0
 11 12  1  0
M  END
>  <PUBCHEM_COMPOUND_CID>  (1) 
8656

>  <PUBCHEM_CONFORMER_RMSD>  (1) 
0.6

>  <PUBCHEM_CONFORMER_DIVERSEORDER>  (1) 
1
2
3

>  <PUBCHEM_MMFF94_PARTIAL_CHARGES>  (1) 
16
1 -0.57
10 0.14
11 0.57
12 0.06
13 0.15
14 0.15
18 0.15
2 -0.55
22 0.37
3 -0.14
4 -0.14
5 0.12
6 -0.15
7 -0.15
8 0.14
9 -0.15

>  <PUBCHEM_EFFECTIVE_ROTOR_COUNT>  (1) 
2

>  <PUBCHEM_PHARMACOPHORE_FEATURES>  (1) 
3
1 1 acceptor
1 2 donor
6 3 4 5 6 7 9 rings

>  <PUBCHEM_HEAVY_ATOM_COUNT>  (1) 
12

>  <PUBCHEM_ATOM_DEF_STEREO_COUNT>  (1) 
0

>  <PUBCHEM_ATOM_UDEF_STEREO_COUNT>  (1) 
0

>  <PUBCHEM_BOND_DEF_STEREO_COUNT>  (1) 
0

>  <PUBCHEM_BOND_UDEF_STEREO_COUNT>  (1) 
0

>  <PUBCHEM_ISOTOPIC_ATOM_COUNT>  (1) 
0

>  <PUBCHEM_COMPONENT_COUNT>  (1) 
1

>  <PUBCHEM_CACTVS_TAUTO_COUNT>  (1) 
2

>  <PUBCHEM_CONFORMER_ID>  (1) 
000021D000000001

>  <PUBCHEM_MMFF94_ENERGY>  (1) 
37.6319

>  <PUBCHEM_FEATURE_SELFOVERLAP>  (1) 
15.223

>  <PUBCHEM_SHAPE_FINGERPRINT>  (1) 
11132069 177 18342451530386668793
12032990 46 18409453617463458515
12716758 59 18411413995002902626
12932764 1 17458621169020649484
13024252 1 14996290188774163789
13380535 76 18122058707098185933
14144814 61 18337107869959141674
14325111 11 18410856534054809988
14614273 12 18116992179018721653
15775835 57 18043536018895718656
16945 1 18338517563776907461
193761 8 17545883093304704003
20510252 161 18272088275198626704
20711985 365 18410011018260916244
20871998 184 18272936054651171535
23402539 116 18342728620423530911
23463225 33 18336264544324463410
23552423 10 17901951073136604973
23559900 14 18270956835664725530
2748010 2 18266744584468535655
369184 2 18411136926562540560
43471831 8 18190176797828724971
6333449 129 18340203003380397397

>  <PUBCHEM_SHAPE_MULTIPOLES>  (1) 
236.1
5.41
2.04
0.6
3.6
0.02
0
1.09
0
-0.72
0
-0.03
0.01
0

>  <PUBCHEM_SHAPE_SELFOVERLAP>  (1) 
485.417

>  <PUBCHEM_SHAPE_VOLUME>  (1) 
137.3

>  <PUBCHEM_COORDINATE_TYPE>  (1) 
2
5
10

$$$$
