8676
     RDKit          3D

 18 19  0  0  0  0  0  0  0  0999 V2000
    5.5933   -1.0817    0.2800 O   0  0  0  0  0  0  0  0  0  0  0  0
   -5.5522    1.0819    0.2832 O   0  0  0  0  0  0  0  0  0  0  0  0
   -5.5642   -1.0343   -0.3006 O   0  0  0  0  0  0  0  0  0  0  0  0
   -4.9500    0.0196   -0.0062 N   0  0  0  0  0  0  0  0  0  0  0  0
    0.7063   -0.0178    0.0054 C   0  0  0  0  0  0  0  0  0  0  0  0
   -0.7407   -0.0084    0.0043 C   0  0  0  0  0  0  0  0  0  0  0  0
    1.4120    1.1465   -0.2979 C   0  0  0  0  0  0  0  0  0  0  0  0
    1.3953   -1.1917    0.3103 C   0  0  0  0  0  0  0  0  0  0  0  0
    3.4960   -0.0369    0.0086 C   0  0  0  0  0  0  0  0  0  0  0  0
   -1.4307    1.1604    0.3252 C   0  0  0  0  0  0  0  0  0  0  0  0
   -1.4452   -1.1680   -0.3191 C   0  0  0  0  0  0  0  0  0  0  0  0
    2.8068    1.1369   -0.2964 C   0  0  0  0  0  0  0  0  0  0  0  0
    2.7902   -1.2013    0.3120 C   0  0  0  0  0  0  0  0  0  0  0  0
   -3.5302    0.0102   -0.0007 C   0  0  0  0  0  0  0  0  0  0  0  0
   -2.8255    1.1696    0.3228 C   0  0  0  0  0  0  0  0  0  0  0  0
   -2.8400   -1.1588   -0.3217 C   0  0  0  0  0  0  0  0  0  0  0  0
    4.9502   -0.0475    0.0107 C   0  0  0  0  0  0  0  0  0  0  0  0
    5.7287    1.2214   -0.3199 C   0  0  0  0  0  0  0  0  0  0  0  0
  1 17  2  0
  2  4  1  0
  3  4  2  0
  4 14  1  0
  5  6  1  0
  5  7  2  0
  5  8  1  0
  6 10  2  0
  6 11  1  0
  7 12  1  0
  8 13  2  0
  9 12  2  0
  9 13  1  0
  9 17  1  0
 10 15  1  0
 11 16  2  0
 14 15  2  0
 14 16  1  0
 17 18  1  0
M  CHG  2   2  -1   4   1
M  END
>  <PUBCHEM_COMPOUND_CID>  (1) 
8676

>  <PUBCHEM_CONFORMER_RMSD>  (1) 
0.6

>  <PUBCHEM_CONFORMER_DIVERSEORDER>  (1) 
1
2

>  <PUBCHEM_MMFF94_PARTIAL_CHARGES>  (1) 
24
1 -0.57
10 -0.15
11 -0.15
12 -0.15
13 -0.15
14 0.13
15 -0.15
16 -0.15
17 0.42
18 0.06
19 0.15
2 -0.52
20 0.15
21 0.15
22 0.15
23 0.15
24 0.15
25 0.15
26 0.15
3 -0.52
4 0.91
7 -0.15
8 -0.15
9 0.09

>  <PUBCHEM_EFFECTIVE_ROTOR_COUNT>  (1) 
3

>  <PUBCHEM_PHARMACOPHORE_FEATURES>  (1) 
6
1 1 acceptor
1 2 acceptor
1 2 anion
1 3 acceptor
6 5 7 8 9 12 13 rings
6 6 10 11 14 15 16 rings

>  <PUBCHEM_HEAVY_ATOM_COUNT>  (1) 
18

>  <PUBCHEM_ATOM_DEF_STEREO_COUNT>  (1) 
0

>  <PUBCHEM_ATOM_UDEF_STEREO_COUNT>  (1) 
0

>  <PUBCHEM_BOND_DEF_STEREO_COUNT>  (1) 
0

>  <PUBCHEM_BOND_UDEF_STEREO_COUNT>  (1) 
0

>  <PUBCHEM_ISOTOPIC_ATOM_COUNT>  (1) 
0

>  <PUBCHEM_COMPONENT_COUNT>  (1) 
1

>  <PUBCHEM_CACTVS_TAUTO_COUNT>  (1) 
2

>  <PUBCHEM_CONFORMER_ID>  (1) 
000021E400000001

>  <PUBCHEM_MMFF94_ENERGY>  (1) 
62.2258

>  <PUBCHEM_FEATURE_SELFOVERLAP>  (1) 
30.528

>  <PUBCHEM_SHAPE_FINGERPRINT>  (1) 
10968037 39 18411138056344563909
11401426 45 18409447007540178568
12107183 9 17690280404559625432
12236239 1 18410856559639789574
13288520 33 18343865511135645053
13533116 47 17846218813611700230
13862211 1 18410853261120990342
15048467 5 18410293613992183892
15196674 1 18410575093253013506
15242433 33 18411418410240157038
17834072 33 18413387657171890900
18522853 276 18413108359654162336
200 152 18342174479463649729
20279233 1 15647058144253072362
20645477 70 18339643339673439918
21267235 1 18410863156709757602
2297311 6 17703519839066291452
23402539 116 18131063836205116253
23402655 69 18411134723244311365
23557571 272 17346606244213436520
23559900 14 18271800280498548856
26918003 58 17967817158527160675
29717793 49 18202284671887376084
300161 21 18410287012627183612
3004659 81 18408608029293437206
34797466 226 17203335558962764124
350125 39 18411138030369687825
3545911 37 18410856563940051118
4214541 1 18411136918289227501
42788 4 18410855460138711300
4340502 62 16588027900491128234
4463277 17 18410575088979411564
474 4 17967819404937864332
5104073 3 18410575131944649858
542803 24 18410573989462275180
59755656 215 18130514046031769566
67856867 119 18266177412620953740
7495541 125 17346311656569338690

>  <PUBCHEM_SHAPE_MULTIPOLES>  (1) 
347.84
12.87
1.47
0.66
0.32
0
0
0.67
0.2
-0.16
-0.01
-0.04
0
-0.71

>  <PUBCHEM_SHAPE_SELFOVERLAP>  (1) 
755.87

>  <PUBCHEM_SHAPE_VOLUME>  (1) 
192

>  <PUBCHEM_COORDINATE_TYPE>  (1) 
2
5
10

$$$$
