8683
     RDKit          3D

 15 16  0  0  0  0  0  0  0  0999 V2000
   -0.5055    0.9306   -0.2572 N   0  0  0  0  0  0  0  0  0  0  0  0
    1.6961    2.5292    0.5818 N   0  0  0  0  0  0  0  0  0  0  0  0
    4.6503   -1.2733    0.0018 N   0  0  0  0  0  0  0  0  0  0  0  0
    0.7944    0.3930   -0.1876 C   0  0  0  0  0  0  0  0  0  0  0  0
    1.8773    1.1743    0.2241 C   0  0  0  0  0  0  0  0  0  0  0  0
   -1.7850    0.3605   -0.0929 C   0  0  0  0  0  0  0  0  0  0  0  0
    0.9991   -0.9445   -0.5357 C   0  0  0  0  0  0  0  0  0  0  0  0
    3.1565    0.6214    0.2869 C   0  0  0  0  0  0  0  0  0  0  0  0
    3.3569   -0.7143   -0.0616 C   0  0  0  0  0  0  0  0  0  0  0  0
    2.2781   -1.4972   -0.4729 C   0  0  0  0  0  0  0  0  0  0  0  0
   -2.8770    0.8860   -0.7838 C   0  0  0  0  0  0  0  0  0  0  0  0
   -1.9586   -0.7289    0.7609 C   0  0  0  0  0  0  0  0  0  0  0  0
   -4.1424    0.3225   -0.6207 C   0  0  0  0  0  0  0  0  0  0  0  0
   -3.2241   -1.2925    0.9239 C   0  0  0  0  0  0  0  0  0  0  0  0
   -4.3160   -0.7667    0.2330 C   0  0  0  0  0  0  0  0  0  0  0  0
  1  4  1  0
  1  6  1  0
  2  5  1  0
  3  9  1  0
  4  5  2  0
  4  7  1  0
  5  8  1  0
  6 11  2  0
  6 12  1  0
  7 10  2  0
  8  9  2  0
  9 10  1  0
 11 13  1  0
 12 14  2  0
 13 15  2  0
 14 15  1  0
M  END
>  <PUBCHEM_COMPOUND_CID>  (1) 
8683

>  <PUBCHEM_CONFORMER_RMSD>  (1) 
0.6

>  <PUBCHEM_CONFORMER_DIVERSEORDER>  (1) 
1
5
3
2
4

>  <PUBCHEM_MMFF94_PARTIAL_CHARGES>  (1) 
28
1 -0.6
10 -0.15
11 -0.15
12 -0.15
13 -0.15
14 -0.15
15 -0.15
16 0.4
17 0.15
18 0.15
19 0.15
2 -0.9
20 0.15
21 0.15
22 0.15
23 0.15
24 0.4
25 0.4
26 0.15
27 0.4
28 0.4
3 -0.9
4 0.1
5 0.1
6 0.1
7 -0.15
8 -0.15
9 0.1

>  <PUBCHEM_EFFECTIVE_ROTOR_COUNT>  (1) 
2

>  <PUBCHEM_PHARMACOPHORE_FEATURES>  (1) 
8
1 1 cation
1 1 donor
1 2 cation
1 2 donor
1 3 cation
1 3 donor
6 4 5 7 8 9 10 rings
6 6 11 12 13 14 15 rings

>  <PUBCHEM_HEAVY_ATOM_COUNT>  (1) 
15

>  <PUBCHEM_ATOM_DEF_STEREO_COUNT>  (1) 
0

>  <PUBCHEM_ATOM_UDEF_STEREO_COUNT>  (1) 
0

>  <PUBCHEM_BOND_DEF_STEREO_COUNT>  (1) 
0

>  <PUBCHEM_BOND_UDEF_STEREO_COUNT>  (1) 
0

>  <PUBCHEM_ISOTOPIC_ATOM_COUNT>  (1) 
0

>  <PUBCHEM_COMPONENT_COUNT>  (1) 
1

>  <PUBCHEM_CACTVS_TAUTO_COUNT>  (1) 
1

>  <PUBCHEM_CONFORMER_ID>  (1) 
000021EB00000001

>  <PUBCHEM_MMFF94_ENERGY>  (1) 
77.219

>  <PUBCHEM_FEATURE_SELFOVERLAP>  (1) 
40.602

>  <PUBCHEM_SHAPE_FINGERPRINT>  (1) 
10465860 250 18335696092707664754
10608611 8 18408317809156864757
11471102 20 18341891909228152052
11543360 7 16877958143431769374
11615757 297 17917998303731166753
12032990 46 18408888429557490052
12236239 1 16630524033605211999
12251169 10 18202566193570909862
124424 183 18334574616216314150
12500047 106 17967525732248518023
13296908 3 18260268581350769427
14115302 16 17821739320494268655
14252887 29 17774725264738391190
15219456 202 18408882975133815809
15242439 84 18260543399223130069
15375358 24 18407755937123904303
15653759 3 18186521016302589483
17804303 29 18333454235553346111
18175812 5 18335138717373815501
18186145 218 17968087621461133093
19049666 15 18263076626658271621
19141452 34 18337962302738567035
200 152 17989200443721668743
20201158 50 18410013212920775595
20279233 1 18407762534235953431
20645476 183 14418138447917178299
20645477 70 18343016692248442687
20671657 53 18341337703738461600
20871998 22 17987245430427416854
21065201 7 17603577547931984049
21730867 7 18411984701524887472
221490 88 18336271257274009626
23402539 116 17894905200978430199
23559900 14 18186516618187682124
26918003 58 18343301457518144547
3286 77 18411138056123147773
474 4 16341990299782129568
5104073 3 18410856559697981681
57812782 119 18335417980489880171
69090 78 18411414047054635175
7364860 26 18339926038367637620
77492 1 16702303481403370045
8809292 202 18259708903956939915
9709674 26 18189336943112586771

>  <PUBCHEM_SHAPE_MULTIPOLES>  (1) 
293.75
8.42
1.73
0.84
1.52
0.51
-0.02
-2.36
-0.03
-0.99
-0.21
0.38
-0.04
0.99

>  <PUBCHEM_SHAPE_SELFOVERLAP>  (1) 
631.083

>  <PUBCHEM_SHAPE_VOLUME>  (1) 
161.5

>  <PUBCHEM_COORDINATE_TYPE>  (1) 
2
5
10

$$$$
