8692
     RDKit          3D

 15 15  0  0  1  0  0  0  0  0999 V2000
    0.9998    0.2462   -0.0565 O   0  0  0  0  0  0  0  0  0  0  0  0
    3.1640   -1.4080    0.6852 O   0  0  0  0  0  0  0  0  0  0  0  0
    5.6366   -0.9658   -0.4891 O   0  0  0  0  0  0  0  0  0  0  0  0
    0.1659    2.3221    0.4864 O   0  0  0  0  0  0  0  0  0  0  0  0
   -5.0689   -1.3001   -0.2317 N   0  0  0  0  0  0  0  0  0  0  0  0
    3.3210   -0.3726   -0.2878 C   0  0  0  0  0  0  0  0  0  0  0  0
    2.3313    0.7446    0.0224 C   0  0  0  0  0  0  0  0  0  0  0  0
    4.7596    0.1228   -0.2190 C   0  0  0  0  0  0  0  0  0  0  0  0
   -1.3232    0.5034    0.0867 C   0  0  0  0  0  0  0  0  0  0  0  0
    0.0109    1.1452    0.1996 C   0  0  0  0  0  0  0  0  0  0  0  0
   -2.4007    1.2694   -0.3083 C   0  0  0  0  0  0  0  0  0  0  0  0
   -1.4438   -0.8396    0.3794 C   0  0  0  0  0  0  0  0  0  0  0  0
   -3.8019   -0.6903   -0.1247 C   0  0  0  0  0  0  0  0  0  0  0  0
   -3.6538    0.6659   -0.4151 C   0  0  0  0  0  0  0  0  0  0  0  0
   -2.6968   -1.4431    0.2725 C   0  0  0  0  0  0  0  0  0  0  0  0
  1  7  1  0
  1 10  1  0
  2  6  1  0
  3  8  1  0
  4 10  2  0
  5 13  1  0
  6  7  1  0
  6  8  1  0
  9 10  1  0
  9 11  2  0
  9 12  1  0
 11 14  1  0
 12 15  2  0
 13 14  2  0
 13 15  1  0
M  END
>  <PUBCHEM_COMPOUND_CID>  (1) 
8692

>  <PUBCHEM_CONFORMER_RMSD>  (1) 
0.6

>  <PUBCHEM_CONFORMER_DIVERSEORDER>  (1) 
1
109
152
131
137
46
150
136
55
69
106
3
115
60
87
28
120
145
130
132
141
12
133
80
54
75
146
31
30
62
154
116
48
97
148
78
32
39
5
123
94
138
101
114
144
33
153
119
35
99
107
63
127
83
151
108
113
56
43
134
86
90
129
125
61
112
139
74
44
25
85
4
67
2
92
77
84
19
118
47
17
149
98
66
143
70
124
23
40
142
7
16
95
93
59
53
111
50
79
41
88
20
102
71
147
140
135
18
8
22
51
81
11
49
76
15
34
126
91
65
36
10
96
68
29
105
26
9
64
57
117
58
38
14
21
13
27
45
73
104
122
42
103
100
72
110
37
82
128
24
89
52
121
6

>  <PUBCHEM_MMFF94_PARTIAL_CHARGES>  (1) 
23
1 -0.43
10 0.63
11 -0.15
12 -0.15
13 0.1
14 -0.15
15 -0.15
2 -0.68
21 0.15
22 0.15
23 0.15
24 0.15
25 0.4
26 0.4
27 0.4
28 0.4
3 -0.68
4 -0.57
5 -0.9
6 0.28
7 0.28
8 0.28
9 0.09

>  <PUBCHEM_EFFECTIVE_ROTOR_COUNT>  (1) 
5

>  <PUBCHEM_PHARMACOPHORE_FEATURES>  (1) 
8
1 2 acceptor
1 2 donor
1 3 acceptor
1 3 donor
1 4 acceptor
1 5 cation
1 5 donor
6 9 11 12 13 14 15 rings

>  <PUBCHEM_HEAVY_ATOM_COUNT>  (1) 
15

>  <PUBCHEM_ATOM_DEF_STEREO_COUNT>  (1) 
0

>  <PUBCHEM_ATOM_UDEF_STEREO_COUNT>  (1) 
1

>  <PUBCHEM_BOND_DEF_STEREO_COUNT>  (1) 
0

>  <PUBCHEM_BOND_UDEF_STEREO_COUNT>  (1) 
0

>  <PUBCHEM_ISOTOPIC_ATOM_COUNT>  (1) 
0

>  <PUBCHEM_COMPONENT_COUNT>  (1) 
1

>  <PUBCHEM_CACTVS_TAUTO_COUNT>  (1) 
2

>  <PUBCHEM_CONFORMER_ID>  (1) 
000021F400000001

>  <PUBCHEM_MMFF94_ENERGY>  (1) 
47.4037

>  <PUBCHEM_FEATURE_SELFOVERLAP>  (1) 
40.605

>  <PUBCHEM_SHAPE_FINGERPRINT>  (1) 
10465860 250 18342173362661642824
10968037 39 18409451405686871206
11046707 91 18413389830214384936
11458722 379 18333732407447407962
12032990 46 18341895207604909689
12251169 10 11887956557453884699
12670543 26 18188755211878941255
13288520 33 18412265043168224335
13690532 89 18412825819773280671
14115302 16 17895481435186712911
14251731 8 18334856095799202709
14252887 29 17703517640306513886
14943859 89 11963391851386628064
15196674 1 18337107869732561042
17804303 29 18410856585942564181
17834072 33 18335986445482035684
17834072 8 18408315576042558701
17870717 6 18338528451529624302
18186145 218 14418139542817528668
200 152 18273214201001535408
20281475 54 18339079285607013736
20374829 77 18410571777696562058
20645477 70 18342177799573551076
20671657 53 18343026617907658240
20871999 31 18113330891013002541
21119208 17 17022903466775510718
21267235 1 18410301323474317459
221490 88 18190749832586162698
22485316 2 18409445877942680728
22926399 37 12901541343266859631
2297311 6 18272943695767048332
23402539 116 18342172246196927981
23403322 49 18412263921707194726
23559900 14 18410567410026552208
2871803 45 18334012787755882786
3004659 81 18114179697274051794
3312278 4 18408887304529311704
4214541 1 18408886204838634596
465052 167 18199755911176751687
4921388 177 15864364574531981219
559249 180 18189047616745761330
7364860 26 18196370548665037137
76465 3 18059004124896115063
9709674 26 18119528983881792627

>  <PUBCHEM_SHAPE_MULTIPOLES>  (1) 
280.23
10.4
1.67
0.69
8.2
0.34
0.01
-4.59
-1.82
-0.57
0.2
0.05
-0.01
0.15

>  <PUBCHEM_SHAPE_SELFOVERLAP>  (1) 
575.35

>  <PUBCHEM_SHAPE_VOLUME>  (1) 
161.6

>  <PUBCHEM_COORDINATE_TYPE>  (1) 
2
5
10

$$$$
