8693
     RDKit          3D

 18 18  0  0  0  0  0  0  0  0999 V2000
   -3.2772    0.4289   -0.0041 O   0  0  0  0  0  0  0  0  0  0  0  0
    3.2617    0.4241    0.0029 O   0  0  0  0  0  0  0  0  0  0  0  0
   -3.5353   -1.8587   -0.0022 O   0  0  0  0  0  0  0  0  0  0  0  0
    3.5329   -1.8619    0.0069 O   0  0  0  0  0  0  0  0  0  0  0  0
    0.7210    0.2877   -0.0007 N   0  0  0  0  0  0  0  0  0  0  0  0
   -4.9976    2.0930   -0.0035 C   0  0  0  0  0  0  0  0  0  0  0  0
    4.9913    2.0914    0.0028 C   0  0  0  0  0  0  0  0  0  0  0  0
   -4.6872    0.6041   -0.0027 C   0  0  0  0  0  0  0  0  0  0  0  0
    4.6823    0.6020    0.0047 C   0  0  0  0  0  0  0  0  0  0  0  0
   -1.3498   -0.9055   -0.0035 C   0  0  0  0  0  0  0  0  0  0  0  0
   -6.4923    2.3584    0.0129 C   0  0  0  0  0  0  0  0  0  0  0  0
    1.3464   -0.9109    0.0008 C   0  0  0  0  0  0  0  0  0  0  0  0
    6.4857    2.3581   -0.0106 C   0  0  0  0  0  0  0  0  0  0  0  0
   -0.7031   -2.1178   -0.0019 C   0  0  0  0  0  0  0  0  0  0  0  0
   -2.8338   -0.8590   -0.0036 C   0  0  0  0  0  0  0  0  0  0  0  0
    0.6874   -2.1297    0.0004 C   0  0  0  0  0  0  0  0  0  0  0  0
    2.7982   -0.8639    0.0043 C   0  0  0  0  0  0  0  0  0  0  0  0
   -0.6307    0.2595   -0.0029 C   0  0  0  0  0  0  0  0  0  0  0  0
  1  8  1  0
  1 15  1  0
  2  9  1  0
  2 17  1  0
  3 15  2  0
  4 17  2  0
  5 12  2  0
  5 18  1  0
  6  8  1  0
  6 11  1  0
  7  9  1  0
  7 13  1  0
 10 14  1  0
 10 15  1  0
 10 18  2  0
 12 16  1  0
 12 17  1  0
 14 16  2  0
M  END
>  <PUBCHEM_COMPOUND_CID>  (1) 
8693

>  <PUBCHEM_CONFORMER_RMSD>  (1) 
0.8

>  <PUBCHEM_CONFORMER_DIVERSEORDER>  (1) 
1
51
89
43
52
4
83
55
107
16
106
39
85
81
96
15
63
82
26
61
80
86
101
79
5
3
62
109
95
94
75
49
104
87
72
34
108
73
38
53
65
42
10
59
58
20
90
41
48
60
91
99
56
105
67
92
76
77
19
70
7
103
71
68
25
54
8
33
2
74
97
93
100
44
57
28
69
66
84
18
12
37
64
98
22
88
32
50
40
102
6
36
46
11
17
29
78
9
47
13
35
45
27
14
30
31
21
24
23

>  <PUBCHEM_MMFF94_PARTIAL_CHARGES>  (1) 
17
1 -0.43
10 0.09
12 0.4
14 -0.15
15 0.63
16 -0.15
17 0.63
18 0.16
2 -0.43
3 -0.57
33 0.15
34 0.15
35 0.15
4 -0.57
5 -0.62
8 0.28
9 0.28

>  <PUBCHEM_EFFECTIVE_ROTOR_COUNT>  (1) 
8

>  <PUBCHEM_PHARMACOPHORE_FEATURES>  (1) 
6
1 11 hydrophobe
1 13 hydrophobe
1 3 acceptor
1 4 acceptor
1 5 acceptor
6 5 10 12 14 16 18 rings

>  <PUBCHEM_HEAVY_ATOM_COUNT>  (1) 
18

>  <PUBCHEM_ATOM_DEF_STEREO_COUNT>  (1) 
0

>  <PUBCHEM_ATOM_UDEF_STEREO_COUNT>  (1) 
0

>  <PUBCHEM_BOND_DEF_STEREO_COUNT>  (1) 
0

>  <PUBCHEM_BOND_UDEF_STEREO_COUNT>  (1) 
0

>  <PUBCHEM_ISOTOPIC_ATOM_COUNT>  (1) 
0

>  <PUBCHEM_COMPONENT_COUNT>  (1) 
1

>  <PUBCHEM_CACTVS_TAUTO_COUNT>  (1) 
1

>  <PUBCHEM_CONFORMER_ID>  (1) 
000021F500000001

>  <PUBCHEM_MMFF94_ENERGY>  (1) 
34.479

>  <PUBCHEM_FEATURE_SELFOVERLAP>  (1) 
30.447

>  <PUBCHEM_SHAPE_FINGERPRINT>  (1) 
10 15 18186807984917291409
10014705 185 18411136927105723139
10378564 45 18201732730394135596
10411042 1 17473826126106252306
117890 112 18410292523429245292
12390115 104 18341628030653344873
12403259 118 17895483646904979188
13073987 5 18261392277670903339
13955234 65 17970908860423249363
15048467 5 18410573989452154405
15196674 1 18410855460133839303
15475509 35 15937530339184252130
15501527 16 18411421738728905305
15519825 34 16371588010915825305
15778101 99 18410295830189832517
17834072 32 18410576188696696277
19427546 20 18270395118219387927
20281389 69 18187645761106296861
21304253 335 18333737922369928836
23402655 69 18272646848527489214
23559900 14 18342456985692168374
268830 7 18188195537941334126
270888 7 18410572885640271584
2838139 119 18199463445542104684
2916195 48 18260830371974517097
293599 30 18411702092750787080
335352 9 18266459810915386974
3472631 163 18343022189922704149
34934 24 18410852161593356426
5104073 3 18113617880437662402
59682541 52 17417827106361917348
6327066 14 18410288087102731221
633830 44 18411131411846236054
636775 72 18197212775374176384
7808743 9 18409725192266174017

>  <PUBCHEM_SHAPE_MULTIPOLES>  (1) 
341.97
14.58
2.88
0.59
0.23
0.58
0
16.47
0.01
0.02
0
0
0.02
-0.02

>  <PUBCHEM_SHAPE_SELFOVERLAP>  (1) 
693.166

>  <PUBCHEM_SHAPE_VOLUME>  (1) 
198.5

>  <PUBCHEM_COORDINATE_TYPE>  (1) 
2
5
10

$$$$
