8742
     RDKit          3D

 12 12  0  0  1  0  0  0  0  0999 V2000
   -1.9421   -0.0387    1.6271 O   0  0  0  0  0  0  0  0  0  0  0  0
   -1.2857    1.8065   -1.4425 O   0  0  0  0  0  0  0  0  0  0  0  0
   -1.8879   -2.2187   -0.0311 O   0  0  0  0  0  0  0  0  0  0  0  0
    2.8540    0.6250    0.9920 O   0  0  0  0  0  0  0  0  0  0  0  0
    2.9857   -0.9347   -0.6754 O   0  0  0  0  0  0  0  0  0  0  0  0
   -1.9476    0.1950    0.2184 C   0  0  0  0  0  0  0  0  0  0  0  0
   -1.1652    1.4808   -0.0596 C   0  0  0  0  0  0  0  0  0  0  0  0
   -1.3350   -1.0038   -0.5275 C   0  0  0  0  0  0  0  0  0  0  0  0
    0.3204    1.3371    0.3173 C   0  0  0  0  0  0  0  0  0  0  0  0
    0.8935   -0.0073   -0.0325 C   0  0  0  0  0  0  0  0  0  0  0  0
    0.1623   -1.0630   -0.4198 C   0  0  0  0  0  0  0  0  0  0  0  0
    2.3476   -0.1784    0.0337 C   0  0  0  0  0  0  0  0  0  0  0  0
  1  6  1  0
  2  7  1  0
  3  8  1  0
  4 12  1  0
  5 12  2  0
  6  7  1  0
  6  8  1  0
  7  9  1  0
  8 11  1  0
  9 10  1  0
 10 11  2  0
 10 12  1  0
M  END
>  <PUBCHEM_COMPOUND_CID>  (1) 
8742

>  <PUBCHEM_CONFORMER_RMSD>  (1) 
0.4

>  <PUBCHEM_CONFORMER_DIVERSEORDER>  (1) 
1
4
6
2
3
5

>  <PUBCHEM_MMFF94_PARTIAL_CHARGES>  (1) 
17
1 -0.68
10 -0.12
11 -0.29
12 0.71
18 0.15
19 0.4
2 -0.68
20 0.4
21 0.4
22 0.5
3 -0.68
4 -0.65
5 -0.57
6 0.28
7 0.28
8 0.42
9 0.14

>  <PUBCHEM_EFFECTIVE_ROTOR_COUNT>  (1) 
1.8

>  <PUBCHEM_PHARMACOPHORE_FEATURES>  (1) 
10
1 1 acceptor
1 1 donor
1 2 acceptor
1 2 donor
1 3 acceptor
1 3 donor
1 4 acceptor
1 5 acceptor
3 4 5 12 anion
6 6 7 8 9 10 11 rings

>  <PUBCHEM_HEAVY_ATOM_COUNT>  (1) 
12

>  <PUBCHEM_ATOM_DEF_STEREO_COUNT>  (1) 
3

>  <PUBCHEM_ATOM_UDEF_STEREO_COUNT>  (1) 
0

>  <PUBCHEM_BOND_DEF_STEREO_COUNT>  (1) 
0

>  <PUBCHEM_BOND_UDEF_STEREO_COUNT>  (1) 
0

>  <PUBCHEM_ISOTOPIC_ATOM_COUNT>  (1) 
0

>  <PUBCHEM_COMPONENT_COUNT>  (1) 
1

>  <PUBCHEM_CACTVS_TAUTO_COUNT>  (1) 
1

>  <PUBCHEM_CONFORMER_ID>  (1) 
0000222600000001

>  <PUBCHEM_MMFF94_ENERGY>  (1) 
20.3146

>  <PUBCHEM_FEATURE_SELFOVERLAP>  (1) 
50.813

>  <PUBCHEM_SHAPE_FINGERPRINT>  (1) 
10857977 72 18269826674422292730
12138202 97 18043803199994317893
12423570 1 12711165023632858695
12716758 59 18338227146778441882
12932764 1 18336266760807033202
13024252 1 16588024593466341473
16945 1 18408322176800676341
20645464 45 18131343082056727386
21040471 1 18194114118997315460
21922407 69 16010468705975071292
23552423 10 18335703866566932406
23559900 14 18055916495010059190
241688 4 18265048214067749955
2748010 2 18272646861760401286
369184 2 17989201525610361104
5084963 1 18343582949432040106

>  <PUBCHEM_SHAPE_MULTIPOLES>  (1) 
217.61
3.6
1.8
1.05
2.68
0.2
-0.09
0.52
-0.42
-0.91
0.34
-0.33
-0.26
0.47

>  <PUBCHEM_SHAPE_SELFOVERLAP>  (1) 
446.48

>  <PUBCHEM_SHAPE_VOLUME>  (1) 
123.5

>  <PUBCHEM_COORDINATE_TYPE>  (1) 
2
5
10

$$$$
