8748
     RDKit          3D

 11 11  0  0  0  0  0  0  0  0999 V2000
   -2.0764    0.0577    1.4232 O   0  0  0  0  0  0  0  0  0  0  0  0
   -1.9842   -0.0039   -0.0032 C   0  0  0  0  0  0  0  0  0  0  0  0
    0.9678   -0.0158   -0.4403 C   0  0  0  0  0  0  0  0  0  0  0  0
   -1.2328    1.2456   -0.4843 C   0  0  0  0  0  0  0  0  0  0  0  0
   -1.2297   -1.2810   -0.4025 C   0  0  0  0  0  0  0  0  0  0  0  0
    0.2267    1.2610   -0.0226 C   0  0  0  0  0  0  0  0  0  0  0  0
    0.2285   -1.2628    0.0622 C   0  0  0  0  0  0  0  0  0  0  0  0
   -3.4080   -0.0194   -0.5622 C   0  0  0  0  0  0  0  0  0  0  0  0
    2.3821    0.0026    0.0570 C   0  0  0  0  0  0  0  0  0  0  0  0
    3.4529   -0.0308   -0.9928 C   0  0  0  0  0  0  0  0  0  0  0  0
    2.6731    0.0468    1.3656 C   0  0  0  0  0  0  0  0  0  0  0  0
  1  2  1  0
  2  4  1  0
  2  5  1  0
  2  8  1  0
  3  6  1  0
  3  7  1  0
  3  9  1  0
  4  6  1  0
  5  7  1  0
  9 10  1  0
  9 11  2  0
M  END
>  <PUBCHEM_COMPOUND_CID>  (1) 
8748

>  <PUBCHEM_CONFORMER_RMSD>  (1) 
0.6

>  <PUBCHEM_CONFORMER_DIVERSEORDER>  (1) 
1
5
2
3
4

>  <PUBCHEM_MMFF94_PARTIAL_CHARGES>  (1) 
9
1 -0.68
10 0.14
11 -0.3
2 0.28
24 0.4
28 0.15
29 0.15
3 0.14
9 -0.28

>  <PUBCHEM_EFFECTIVE_ROTOR_COUNT>  (1) 
2.2

>  <PUBCHEM_PHARMACOPHORE_FEATURES>  (1) 
3
1 1 acceptor
1 1 donor
6 2 3 4 5 6 7 rings

>  <PUBCHEM_HEAVY_ATOM_COUNT>  (1) 
11

>  <PUBCHEM_ATOM_DEF_STEREO_COUNT>  (1) 
0

>  <PUBCHEM_ATOM_UDEF_STEREO_COUNT>  (1) 
0

>  <PUBCHEM_BOND_DEF_STEREO_COUNT>  (1) 
0

>  <PUBCHEM_BOND_UDEF_STEREO_COUNT>  (1) 
0

>  <PUBCHEM_ISOTOPIC_ATOM_COUNT>  (1) 
0

>  <PUBCHEM_COMPONENT_COUNT>  (1) 
1

>  <PUBCHEM_CACTVS_TAUTO_COUNT>  (1) 
1

>  <PUBCHEM_CONFORMER_ID>  (1) 
0000222C00000001

>  <PUBCHEM_MMFF94_ENERGY>  (1) 
20.5974

>  <PUBCHEM_FEATURE_SELFOVERLAP>  (1) 
15.223

>  <PUBCHEM_SHAPE_FINGERPRINT>  (1) 
10857977 72 18411132558543818897
11062470 55 16877661253601044997
12932764 1 18201434757735968262
13024252 1 17095241427867934943
14993402 34 18408886256362060855
15310529 11 16588021320611610772
15775835 57 18410852153072045666
16945 1 18409728465036307263
20645464 45 17917135174482263394
20645476 183 17531253893344396350
20653085 51 15267074630812365706
21293036 1 18408886256288227285
23235685 24 18410292501600630327
23402539 116 14979676551246791561
23552423 10 17825387650383182580
2748010 2 18121494927968013855
29004967 10 15140959560854148828
3248919 1 16877935036386228472
369184 2 18340193146351169434
5084963 1 18131070437153008108
57812782 119 15985104106635758686
8030462 33 17822007593010393588

>  <PUBCHEM_SHAPE_MULTIPOLES>  (1) 
220.51
5.04
1.2
1.09
0.9
0.01
-0.29
0
0.39
-0.32
0.11
0.39
-0.01
0.01

>  <PUBCHEM_SHAPE_SELFOVERLAP>  (1) 
433.482

>  <PUBCHEM_SHAPE_VOLUME>  (1) 
132.6

>  <PUBCHEM_COORDINATE_TYPE>  (1) 
2
5
10

$$$$
