8764
     RDKit          3D

 14 15  0  0  0  0  0  0  0  0999 V2000
    0.4497    1.3955   -0.0490 O   0  0  0  0  0  0  0  0  0  0  0  0
   -4.5200   -1.0996   -0.0965 N   0  0  0  0  0  0  0  0  0  0  0  0
   -0.7661    0.7842   -0.0600 C   0  0  0  0  0  0  0  0  0  0  0  0
    1.5744    0.5906    0.0239 C   0  0  0  0  0  0  0  0  0  0  0  0
   -0.9794   -0.3303   -0.8713 C   0  0  0  0  0  0  0  0  0  0  0  0
   -1.7997    1.2732    0.7390 C   0  0  0  0  0  0  0  0  0  0  0  0
   -3.2595   -0.4668   -0.0849 C   0  0  0  0  0  0  0  0  0  0  0  0
   -2.2261   -0.9558   -0.8839 C   0  0  0  0  0  0  0  0  0  0  0  0
   -3.0464    0.6477    0.7265 C   0  0  0  0  0  0  0  0  0  0  0  0
    1.5965   -0.4559    0.9280 C   0  0  0  0  0  0  0  0  0  0  0  0
    2.6465    0.8546   -0.8090 C   0  0  0  0  0  0  0  0  0  0  0  0
    2.7295   -1.2659    1.0019 C   0  0  0  0  0  0  0  0  0  0  0  0
    3.7796    0.0444   -0.7351 C   0  0  0  0  0  0  0  0  0  0  0  0
    3.8210   -1.0159    0.1704 C   0  0  0  0  0  0  0  0  0  0  0  0
  1  3  1  0
  1  4  1  0
  2  7  1  0
  3  5  2  0
  3  6  1  0
  4 10  2  0
  4 11  1  0
  5  8  1  0
  6  9  2  0
  7  8  2  0
  7  9  1  0
 10 12  1  0
 11 13  2  0
 12 14  2  0
 13 14  1  0
M  END
>  <PUBCHEM_COMPOUND_CID>  (1) 
8764

>  <PUBCHEM_CONFORMER_RMSD>  (1) 
0.6

>  <PUBCHEM_CONFORMER_DIVERSEORDER>  (1) 
1
2
3

>  <PUBCHEM_MMFF94_PARTIAL_CHARGES>  (1) 
25
1 -0.17
10 -0.15
11 -0.15
12 -0.15
13 -0.15
14 -0.15
15 0.15
16 0.15
17 0.15
18 0.15
19 0.15
2 -0.9
20 0.15
21 0.15
22 0.15
23 0.15
24 0.4
25 0.4
3 0.08
4 0.08
5 -0.15
6 -0.15
7 0.1
8 -0.15
9 -0.15

>  <PUBCHEM_EFFECTIVE_ROTOR_COUNT>  (1) 
2

>  <PUBCHEM_PHARMACOPHORE_FEATURES>  (1) 
5
1 1 acceptor
1 2 cation
1 2 donor
6 3 5 6 7 8 9 rings
6 4 10 11 12 13 14 rings

>  <PUBCHEM_HEAVY_ATOM_COUNT>  (1) 
14

>  <PUBCHEM_ATOM_DEF_STEREO_COUNT>  (1) 
0

>  <PUBCHEM_ATOM_UDEF_STEREO_COUNT>  (1) 
0

>  <PUBCHEM_BOND_DEF_STEREO_COUNT>  (1) 
0

>  <PUBCHEM_BOND_UDEF_STEREO_COUNT>  (1) 
0

>  <PUBCHEM_ISOTOPIC_ATOM_COUNT>  (1) 
0

>  <PUBCHEM_COMPONENT_COUNT>  (1) 
1

>  <PUBCHEM_CACTVS_TAUTO_COUNT>  (1) 
1

>  <PUBCHEM_CONFORMER_ID>  (1) 
0000223C00000001

>  <PUBCHEM_MMFF94_ENERGY>  (1) 
58.0741

>  <PUBCHEM_FEATURE_SELFOVERLAP>  (1) 
25.371

>  <PUBCHEM_SHAPE_FINGERPRINT>  (1) 
11578080 2 18265307608497383364
12251169 10 17346310526924335184
12346177 29 17274527785530015205
124424 183 15482388655969653928
12932764 1 18410290298467465384
13581323 91 17847059973727935524
14144814 61 18343301457143552496
14576447 43 18333449863440474346
15239191 94 18410573976625066962
15375462 189 18408889512031810240
15653759 3 16487255460818975546
16752209 62 18200015271329334117
16945 1 17703785912274246637
17804303 29 17775288257076859385
18186145 218 15285640962779249344
19049666 15 15696611952322463588
19422 9 18410017610956503360
200 152 17967529064699884992
20201158 50 16588026796816284560
20279233 1 15574714698756527208
20361792 2 18335691750105565876
20645464 45 15841830040823714477
20645477 70 17603857875783609746
22169311 14 15051732010079337958
22445834 79 18411697656012647195
22485316 2 18407757027808220620
2255824 54 18262805180651951220
22646028 28 18410290306872601779
23402539 116 18113897114184871988
23402655 69 17967814899316581004
23463225 33 18412545370972078502
23559900 14 17131283363418970804
465052 167 18269562787869935295
474 4 18046067322618632828
581208 293 17894349999351816680
69090 78 14908173158097612557
7364860 26 17844524611837258760
77492 1 18409736140285530328

>  <PUBCHEM_SHAPE_MULTIPOLES>  (1) 
277.26
7.55
1.35
1.03
0.89
0.04
-0.02
-2.42
0.16
0.1
-0.1
-0.2
-0.08
-0.94

>  <PUBCHEM_SHAPE_SELFOVERLAP>  (1) 
600.332

>  <PUBCHEM_SHAPE_VOLUME>  (1) 
152.5

>  <PUBCHEM_COORDINATE_TYPE>  (1) 
2
5
10

$$$$
