8769
     RDKit          3D

  9  8  0  0  0  0  0  0  0  0999 V2000
    3.1823   -1.4107   -0.1280 O   0  0  0  0  0  0  0  0  0  0  0  0
   -3.1493   -1.4651   -0.1188 O   0  0  0  0  0  0  0  0  0  0  0  0
    0.0010    0.4199    0.2103 N   0  0  0  0  0  0  0  0  0  0  0  0
    0.9266   -0.6218   -0.2335 C   0  0  0  0  0  0  0  0  0  0  0  0
   -1.3594    0.1176   -0.2331 C   0  0  0  0  0  0  0  0  0  0  0  0
    0.4237    1.7268   -0.2918 C   0  0  0  0  0  0  0  0  0  0  0  0
    2.3225   -0.3680    0.3128 C   0  0  0  0  0  0  0  0  0  0  0  0
   -1.8201   -1.2208    0.3221 C   0  0  0  0  0  0  0  0  0  0  0  0
   -0.5273    2.8221    0.1600 C   0  0  0  0  0  0  0  0  0  0  0  0
  1  7  1  0
  2  8  1  0
  3  4  1  0
  3  5  1  0
  3  6  1  0
  4  7  1  0
  5  8  1  0
  6  9  1  0
M  END
>  <PUBCHEM_COMPOUND_CID>  (1) 
8769

>  <PUBCHEM_CONFORMER_RMSD>  (1) 
0.6

>  <PUBCHEM_CONFORMER_DIVERSEORDER>  (1) 
1
39
31
6
46
27
38
20
43
42
22
5
45
44
24
25
16
41
19
29
35
18
14
30
36
33
7
26
32
3
37
2
4
40
9
34
10
11
21
17
15
28
12
8
13
23

>  <PUBCHEM_MMFF94_PARTIAL_CHARGES>  (1) 
10
1 -0.68
2 -0.68
23 0.4
24 0.4
3 -0.81
4 0.27
5 0.27
6 0.27
7 0.28
8 0.28

>  <PUBCHEM_EFFECTIVE_ROTOR_COUNT>  (1) 
5

>  <PUBCHEM_PHARMACOPHORE_FEATURES>  (1) 
5
1 1 acceptor
1 1 donor
1 2 acceptor
1 2 donor
1 3 cation

>  <PUBCHEM_HEAVY_ATOM_COUNT>  (1) 
9

>  <PUBCHEM_ATOM_DEF_STEREO_COUNT>  (1) 
0

>  <PUBCHEM_ATOM_UDEF_STEREO_COUNT>  (1) 
0

>  <PUBCHEM_BOND_DEF_STEREO_COUNT>  (1) 
0

>  <PUBCHEM_BOND_UDEF_STEREO_COUNT>  (1) 
0

>  <PUBCHEM_ISOTOPIC_ATOM_COUNT>  (1) 
0

>  <PUBCHEM_COMPONENT_COUNT>  (1) 
1

>  <PUBCHEM_CACTVS_TAUTO_COUNT>  (1) 
1

>  <PUBCHEM_CONFORMER_ID>  (1) 
0000224100000001

>  <PUBCHEM_MMFF94_ENERGY>  (1) 
11.2606

>  <PUBCHEM_FEATURE_SELFOVERLAP>  (1) 
25.372

>  <PUBCHEM_SHAPE_FINGERPRINT>  (1) 
1 1 17617659194954177605
19021347 4 17547010728019839608
20645477 70 18048588524393207079
20711978 78 18050271863382266101
20711985 344 18265325106098136435
20871998 184 18201154334873336102
20871998 22 18412265064216026634
21040471 1 17617660960354469660
23552423 10 18187087226320824278
23552449 1 18339077065066866344
23552449 11 18192989546361993803
29004967 10 18338795718696399714
81228 2 18265054634838363001

>  <PUBCHEM_SHAPE_MULTIPOLES>  (1) 
168.5
3.79
2.54
0.64
0.71
2.17
0.01
-3.4
0.01
-0.68
0.08
0.01
0.03
0.02

>  <PUBCHEM_SHAPE_SELFOVERLAP>  (1) 
301.115

>  <PUBCHEM_SHAPE_VOLUME>  (1) 
110.9

>  <PUBCHEM_COORDINATE_TYPE>  (1) 
2
5
10

$$$$
