8773
     RDKit          3D

 19 18  0  0  1  0  0  0  0  0999 V2000
   -3.4474    2.3306   -2.5676 O   0  0  0  0  0  0  0  0  0  0  0  0
   -4.4651   -2.2146    1.1358 O   0  0  0  0  0  0  0  0  0  0  0  0
    4.0912   -2.6969   -0.8561 O   0  0  0  0  0  0  0  0  0  0  0  0
    2.8340    2.4880    2.3079 O   0  0  0  0  0  0  0  0  0  0  0  0
   -3.8255   -0.1438    1.8177 O   0  0  0  0  0  0  0  0  0  0  0  0
    3.5457   -0.7217   -1.8375 O   0  0  0  0  0  0  0  0  0  0  0  0
    2.3843    2.4883    0.0808 O   0  0  0  0  0  0  0  0  0  0  0  0
   -1.9441   -0.0477   -0.1848 N   0  0  0  0  0  0  0  0  0  0  0  0
    1.7674   -0.1882    0.1896 N   0  0  0  0  0  0  0  0  0  0  0  0
   -0.5494   -0.1203   -0.6064 C   0  0  0  0  0  0  0  0  0  0  0  0
    0.3699   -0.0976    0.6112 C   0  0  0  0  0  0  0  0  0  0  0  0
   -2.7899    0.4232   -1.2827 C   0  0  0  0  0  0  0  0  0  0  0  0
   -2.4070   -1.3529    0.2893 C   0  0  0  0  0  0  0  0  0  0  0  0
    2.1291   -1.5782   -0.0855 C   0  0  0  0  0  0  0  0  0  0  0  0
    2.6475    0.3762    1.2121 C   0  0  0  0  0  0  0  0  0  0  0  0
   -2.6234    1.9210   -1.4841 C   0  0  0  0  0  0  0  0  0  0  0  0
   -3.6248   -1.1487    1.1474 C   0  0  0  0  0  0  0  0  0  0  0  0
    3.3164   -1.5928   -1.0082 C   0  0  0  0  0  0  0  0  0  0  0  0
    2.5909    1.8761    1.1210 C   0  0  0  0  0  0  0  0  0  0  0  0
  1 16  1  0
  2 17  1  0
  3 18  1  0
  4 19  1  0
  5 17  2  0
  6 18  2  0
  7 19  2  0
  8 10  1  0
  8 12  1  0
  8 13  1  0
  9 11  1  0
  9 14  1  0
  9 15  1  0
 10 11  1  0
 12 16  1  0
 13 17  1  0
 14 18  1  0
 15 19  1  0
M  END
>  <PUBCHEM_COMPOUND_CID>  (1) 
8773

>  <PUBCHEM_CONFORMER_RMSD>  (1) 
1

>  <PUBCHEM_CONFORMER_DIVERSEORDER>  (1) 
2
28
23
26
16
27
15
4
3
7
18
17
20
5
12
21
13
22
19
25
11
14
8
24
9
6
10
1

>  <PUBCHEM_MMFF94_PARTIAL_CHARGES>  (1) 
23
1 -0.68
10 0.27
11 0.27
12 0.27
13 0.33
14 0.33
15 0.33
16 0.28
17 0.66
18 0.66
19 0.66
2 -0.65
3 -0.65
34 0.4
35 0.5
36 0.5
37 0.5
4 -0.65
5 -0.57
6 -0.57
7 -0.57
8 -0.81
9 -0.81

>  <PUBCHEM_EFFECTIVE_ROTOR_COUNT>  (1) 
11

>  <PUBCHEM_PHARMACOPHORE_FEATURES>  (1) 
13
1 1 acceptor
1 1 donor
1 2 acceptor
1 3 acceptor
1 4 acceptor
1 5 acceptor
1 6 acceptor
1 7 acceptor
1 8 cation
1 9 cation
3 2 5 17 anion
3 3 6 18 anion
3 4 7 19 anion

>  <PUBCHEM_HEAVY_ATOM_COUNT>  (1) 
19

>  <PUBCHEM_ATOM_DEF_STEREO_COUNT>  (1) 
0

>  <PUBCHEM_ATOM_UDEF_STEREO_COUNT>  (1) 
0

>  <PUBCHEM_BOND_DEF_STEREO_COUNT>  (1) 
0

>  <PUBCHEM_BOND_UDEF_STEREO_COUNT>  (1) 
0

>  <PUBCHEM_ISOTOPIC_ATOM_COUNT>  (1) 
0

>  <PUBCHEM_COMPONENT_COUNT>  (1) 
1

>  <PUBCHEM_CACTVS_TAUTO_COUNT>  (1) 
1

>  <PUBCHEM_CONFORMER_ID>  (1) 
0000224500000002

>  <PUBCHEM_MMFF94_ENERGY>  (1) 
31.1477

>  <PUBCHEM_FEATURE_SELFOVERLAP>  (1) 
66.15

>  <PUBCHEM_SHAPE_FINGERPRINT>  (1) 
12549972 3 18337379440445921041
12553582 1 17703234984230134614
12707595 3 18271807865722153094
12788726 201 16732710445884844345
13134695 92 17916858016185205012
13533116 47 18130517434993275795
13673619 4 18193021303213595491
14178342 30 17241587490687398657
15295992 7 18270679745433191425
15806764 133 18409173181647307125
15842332 3 16128366116664539661
18186145 218 18412545405263375155
18222031 100 17896612863344674323
18785283 64 18269558415666678400
18915476 22 18201430415613702816
20645477 70 17988065734362285110
20693207 138 18410584993174243087
20715346 28 18409158922429418959
21041028 32 17774455875583218040
22182313 1 18409157827102261589
2255824 54 17918000498829142414
22943178 12 18409158913865916487
23503958 25 18186802478389201549
23557571 272 18114173172738570925
23559900 14 18186517687597602871
23598291 2 16559032687860513844
238078 22 15503530177555544635
2748010 2 18336816546216375861
2818148 4 18121814731054253381
312423 11 16343697772525447855
458136 41 18127417975927451344
6049 1 18408886230624002733
621550 34 18194679491338581065
621550 5 18193022402608490189
7615 1 15841258316136062825
81228 2 17385721388131393069
88987 49 17458893852030422469

>  <PUBCHEM_SHAPE_MULTIPOLES>  (1) 
339.96
8.59
2.84
2.05
2.42
0.82
0.18
-2.38
-0.01
-1.09
0.17
0.62
1.06
4.47

>  <PUBCHEM_SHAPE_SELFOVERLAP>  (1) 
658.62

>  <PUBCHEM_SHAPE_VOLUME>  (1) 
205.9

>  <PUBCHEM_COORDINATE_TYPE>  (1) 
2
5
10

$$$$
