8786
     RDKit          3D

 12 12  0  0  0  0  0  0  0  0999 V2000
    4.9624   -0.0428    0.7608 Cl  0  0  0  0  0  0  0  0  0  0  0  0
    1.1013   -0.0007    0.1314 O   0  0  0  0  0  0  0  0  0  0  0  0
    2.9061    0.0497   -1.3011 O   0  0  0  0  0  0  0  0  0  0  0  0
   -1.1759    0.0148   -0.4342 C   0  0  0  0  0  0  0  0  0  0  0  0
    0.2127    0.0351   -0.9787 C   0  0  0  0  0  0  0  0  0  0  0  0
   -1.8235   -1.2020   -0.2202 C   0  0  0  0  0  0  0  0  0  0  0  0
   -1.8269    1.2127   -0.1393 C   0  0  0  0  0  0  0  0  0  0  0  0
   -3.1220   -1.2208    0.2887 C   0  0  0  0  0  0  0  0  0  0  0  0
   -3.1253    1.1939    0.3698 C   0  0  0  0  0  0  0  0  0  0  0  0
   -3.7730   -0.0228    0.5839 C   0  0  0  0  0  0  0  0  0  0  0  0
    2.4387    0.0113   -0.1716 C   0  0  0  0  0  0  0  0  0  0  0  0
    3.2253   -0.0284    1.1104 C   0  0  0  0  0  0  0  0  0  0  0  0
  1 12  1  0
  2  5  1  0
  2 11  1  0
  3 11  2  0
  4  5  1  0
  4  6  2  0
  4  7  1  0
  6  8  1  0
  7  9  2  0
  8 10  2  0
  9 10  1  0
 11 12  1  0
M  END
>  <PUBCHEM_COMPOUND_CID>  (1) 
8786

>  <PUBCHEM_CONFORMER_RMSD>  (1) 
0.6

>  <PUBCHEM_CONFORMER_DIVERSEORDER>  (1) 
1
16
6
20
15
21
19
10
4
12
9
2
11
5
14
22
3
18
23
13
17
8
7

>  <PUBCHEM_MMFF94_PARTIAL_CHARGES>  (1) 
17
1 -0.29
10 -0.15
11 0.66
12 0.35
15 0.15
16 0.15
17 0.15
18 0.15
19 0.15
2 -0.43
3 -0.57
4 -0.14
5 0.42
6 -0.15
7 -0.15
8 -0.15
9 -0.15

>  <PUBCHEM_EFFECTIVE_ROTOR_COUNT>  (1) 
4

>  <PUBCHEM_PHARMACOPHORE_FEATURES>  (1) 
2
1 3 acceptor
6 4 6 7 8 9 10 rings

>  <PUBCHEM_HEAVY_ATOM_COUNT>  (1) 
12

>  <PUBCHEM_ATOM_DEF_STEREO_COUNT>  (1) 
0

>  <PUBCHEM_ATOM_UDEF_STEREO_COUNT>  (1) 
0

>  <PUBCHEM_BOND_DEF_STEREO_COUNT>  (1) 
0

>  <PUBCHEM_BOND_UDEF_STEREO_COUNT>  (1) 
0

>  <PUBCHEM_ISOTOPIC_ATOM_COUNT>  (1) 
0

>  <PUBCHEM_COMPONENT_COUNT>  (1) 
1

>  <PUBCHEM_CACTVS_TAUTO_COUNT>  (1) 
1

>  <PUBCHEM_CONFORMER_ID>  (1) 
0000225200000001

>  <PUBCHEM_MMFF94_ENERGY>  (1) 
22.0225

>  <PUBCHEM_FEATURE_SELFOVERLAP>  (1) 
10.148

>  <PUBCHEM_SHAPE_FINGERPRINT>  (1) 
11132069 177 18342744009396684813
12251169 10 18408884044417051276
13024252 1 14417851437028185909
13214271 11 17704068504079675741
14123260 362 13470406716321571514
14144814 61 18187368731029970677
14252887 29 17167856427652591362
15219456 202 17704079455866414190
18186145 218 15267068046938724196
19422 9 17676212380910313666
200 152 16226041206321771555
20279233 1 17775567537341080222
20645464 45 17846779615643214415
20645477 56 17704071793692243553
20645477 70 15430027768987399554
20671657 53 13912600529280062038
21061003 4 14345803733851606533
21119208 17 10447928382069065768
21499 59 14620791613354209676
21650355 55 18410292562289322153
22485316 2 16081084883218527960
22926399 37 14476957887385921923
23402539 116 18272360989254040487
23403322 49 13118272651417795936
42 15 18335980887805007962
449060 50 16988843912520257984

>  <PUBCHEM_SHAPE_MULTIPOLES>  (1) 
237.09
8.58
1.11
1.03
7.73
0.01
0.08
0.07
-2.78
-1.24
-0.05
0.66
0
-0.03

>  <PUBCHEM_SHAPE_SELFOVERLAP>  (1) 
473.871

>  <PUBCHEM_SHAPE_VOLUME>  (1) 
140.2

>  <PUBCHEM_COORDINATE_TYPE>  (1) 
2
5
10

$$$$
