8788
     RDKit          3D

 15 15  0  0  0  0  0  0  0  0999 V2000
    0.0925    0.3242    0.0211 O   0  0  0  0  0  0  0  0  0  0  0  0
   -1.3508    2.1222   -0.0247 O   0  0  0  0  0  0  0  0  0  0  0  0
   -5.9118   -0.2583   -0.0810 O   0  0  0  0  0  0  0  0  0  0  0  0
   -4.3558   -1.9063    0.0780 O   0  0  0  0  0  0  0  0  0  0  0  0
   -2.1995   -0.1589    0.0750 C   0  0  0  0  0  0  0  0  0  0  0  0
    2.4784    0.4180   -0.0172 C   0  0  0  0  0  0  0  0  0  0  0  0
    1.2092    1.2183   -0.0284 C   0  0  0  0  0  0  0  0  0  0  0  0
   -3.6175    0.3926   -0.0115 C   0  0  0  0  0  0  0  0  0  0  0  0
   -1.1381    0.9185    0.0169 C   0  0  0  0  0  0  0  0  0  0  0  0
    3.0780    0.0952    1.1951 C   0  0  0  0  0  0  0  0  0  0  0  0
    3.0432    0.0059   -1.2190 C   0  0  0  0  0  0  0  0  0  0  0  0
    4.2577   -0.6490    1.2057 C   0  0  0  0  0  0  0  0  0  0  0  0
    4.2229   -0.7384   -1.2083 C   0  0  0  0  0  0  0  0  0  0  0  0
    4.8301   -1.0658    0.0040 C   0  0  0  0  0  0  0  0  0  0  0  0
   -4.6385   -0.7182   -0.0057 C   0  0  0  0  0  0  0  0  0  0  0  0
  1  7  1  0
  1  9  1  0
  2  9  2  0
  3 15  1  0
  4 15  2  0
  5  8  1  0
  5  9  1  0
  6  7  1  0
  6 10  2  0
  6 11  1  0
  8 15  1  0
 10 12  1  0
 11 13  2  0
 12 14  2  0
 13 14  1  0
M  END
>  <PUBCHEM_COMPOUND_CID>  (1) 
8788

>  <PUBCHEM_CONFORMER_RMSD>  (1) 
0.8

>  <PUBCHEM_CONFORMER_DIVERSEORDER>  (1) 
1
44
23
26
28
27
32
38
17
10
25
4
29
21
40
3
60
56
22
5
50
36
18
33
14
48
42
34
13
24
6
57
41
59
55
49
39
43
31
15
20
7
16
30
53
9
11
2
58
45
51
35
52
8
12
54
47
37
46
19
62
61

>  <PUBCHEM_MMFF94_PARTIAL_CHARGES>  (1) 
21
1 -0.43
10 -0.15
11 -0.15
12 -0.15
13 -0.15
14 -0.15
15 0.66
2 -0.57
22 0.15
23 0.15
24 0.15
25 0.15
26 0.15
27 0.5
3 -0.65
4 -0.57
5 0.06
6 -0.14
7 0.42
8 0.06
9 0.66

>  <PUBCHEM_EFFECTIVE_ROTOR_COUNT>  (1) 
6

>  <PUBCHEM_PHARMACOPHORE_FEATURES>  (1) 
5
1 2 acceptor
1 3 acceptor
1 4 acceptor
3 3 4 15 anion
6 6 10 11 12 13 14 rings

>  <PUBCHEM_HEAVY_ATOM_COUNT>  (1) 
15

>  <PUBCHEM_ATOM_DEF_STEREO_COUNT>  (1) 
0

>  <PUBCHEM_ATOM_UDEF_STEREO_COUNT>  (1) 
0

>  <PUBCHEM_BOND_DEF_STEREO_COUNT>  (1) 
0

>  <PUBCHEM_BOND_UDEF_STEREO_COUNT>  (1) 
0

>  <PUBCHEM_ISOTOPIC_ATOM_COUNT>  (1) 
0

>  <PUBCHEM_COMPONENT_COUNT>  (1) 
1

>  <PUBCHEM_CACTVS_TAUTO_COUNT>  (1) 
1

>  <PUBCHEM_CONFORMER_ID>  (1) 
0000225400000001

>  <PUBCHEM_MMFF94_ENERGY>  (1) 
24.3747

>  <PUBCHEM_FEATURE_SELFOVERLAP>  (1) 
25.43

>  <PUBCHEM_SHAPE_FINGERPRINT>  (1) 
100836 57 9655573024194003270
10378564 45 12540956479220826610
11046707 91 18408886235224970601
11128504 68 16298389080103860575
11543360 7 15574999506717497761
12596602 18 14333125286852501295
12730499 353 12324242732769865465
13533116 47 15698009504462915246
13675066 3 17346598564769550569
1420 369 18413108368201931319
14251752 14 17603858967491007261
14252887 29 17132120117537213182
14445660 50 12967119519545953396
14576447 43 17822010879071909762
15880784 105 16774075211076914103
15885798 251 18343865519741819777
17834072 33 18041001747862814404
18186145 218 13262395566197832861
18222031 100 18342739645699538093
19141452 34 17704068530013081735
193927 3 18340497728441934027
200 152 17240482489833085116
20369508 70 18114176458573279000
20374829 77 18409165519863214839
20432913 95 17203332212655440623
20645477 56 8142078767280280745
20645477 70 18260832609414828694
212847 35 9007063452639525964
21354914 88 18413671318260639849
221357 26 14634863145965739999
22289505 5 13334731336883498526
22646028 1 18186801365850214488
23402539 116 18261107439861101557
23402655 69 14418136210123061358
23557571 272 18200884963299432749
23559900 14 18262516008534748328
26918003 58 17489869341047972891
2767999 5 10447930542791309931
2916195 48 10737290172981984631
29717793 49 17530966839584755462
3004659 81 18113338621806266782
3060560 45 15068343402425459226
314173 85 18272655645047889721
3472631 163 9583220761145586778
351380 3 18187364337584680971
4028521 119 11818989682170092575
42 15 17275107223393386873
465052 167 18410018762092537591
522135 26 16081367449512538202
5374978 207 18201997750575986640
960060 61 17240485822812038086

>  <PUBCHEM_SHAPE_MULTIPOLES>  (1) 
285.22
12.53
1.4
1.01
10.08
0.15
0
-6.03
-0.01
0.85
0.01
-1.51
-0.12
0.1

>  <PUBCHEM_SHAPE_SELFOVERLAP>  (1) 
581.243

>  <PUBCHEM_SHAPE_VOLUME>  (1) 
164.3

>  <PUBCHEM_COORDINATE_TYPE>  (1) 
2
5
10

$$$$
