8798
     RDKit          3D

 12 12  0  0  0  0  0  0  0  0999 V2000
   -0.6135    1.2432    0.0013 S   0  0  0  0  0  0  0  0  0  0  0  0
    3.3640   -1.1952    0.0010 O   0  0  0  0  0  0  0  0  0  0  0  0
   -3.8840   -0.8366   -0.0002 O   0  0  0  0  0  0  0  0  0  0  0  0
   -3.5318    1.3302    0.0000 O   0  0  0  0  0  0  0  0  0  0  0  0
    1.9469    0.6833    0.0008 N   0  0  0  0  0  0  0  0  0  0  0  0
    0.3767   -1.1447   -0.0005 N   0  0  0  0  0  0  0  0  0  0  0  0
   -3.0874    0.1459   -0.0003 N   0  0  0  0  0  0  0  0  0  0  0  0
    0.6519    0.1128    0.0000 C   0  0  0  0  0  0  0  0  0  0  0  0
   -1.7061   -0.0787   -0.0004 C   0  0  0  0  0  0  0  0  0  0  0  0
   -0.9994   -1.2631   -0.0004 C   0  0  0  0  0  0  0  0  0  0  0  0
    3.1648    0.0153    0.0013 C   0  0  0  0  0  0  0  0  0  0  0  0
    4.3178    0.9876   -0.0025 C   0  0  0  0  0  0  0  0  0  0  0  0
  1  8  1  0
  1  9  1  0
  2 11  2  0
  3  7  1  0
  4  7  2  0
  5  8  1  0
  5 11  1  0
  6  8  2  0
  6 10  1  0
  7  9  1  0
  9 10  2  0
 11 12  1  0
M  CHG  2   3  -1   7   1
M  END
>  <PUBCHEM_COMPOUND_CID>  (1) 
8798

>  <PUBCHEM_CONFORMER_RMSD>  (1) 
0.6

>  <PUBCHEM_CONFORMER_DIVERSEORDER>  (1) 
1
3
4
5
2

>  <PUBCHEM_MMFF94_PARTIAL_CHARGES>  (1) 
14
1 -0.08
10 0.08
11 0.57
12 0.06
13 0.37
14 0.15
2 -0.57
3 -0.52
4 -0.52
5 -0.49
6 -0.57
7 0.96
8 0.44
9 0.12

>  <PUBCHEM_EFFECTIVE_ROTOR_COUNT>  (1) 
3

>  <PUBCHEM_PHARMACOPHORE_FEATURES>  (1) 
6
1 2 acceptor
1 3 acceptor
1 3 anion
1 4 acceptor
1 5 donor
5 1 6 8 9 10 rings

>  <PUBCHEM_HEAVY_ATOM_COUNT>  (1) 
12

>  <PUBCHEM_ATOM_DEF_STEREO_COUNT>  (1) 
0

>  <PUBCHEM_ATOM_UDEF_STEREO_COUNT>  (1) 
0

>  <PUBCHEM_BOND_DEF_STEREO_COUNT>  (1) 
0

>  <PUBCHEM_BOND_UDEF_STEREO_COUNT>  (1) 
0

>  <PUBCHEM_ISOTOPIC_ATOM_COUNT>  (1) 
0

>  <PUBCHEM_COMPONENT_COUNT>  (1) 
1

>  <PUBCHEM_CACTVS_TAUTO_COUNT>  (1) 
3

>  <PUBCHEM_CONFORMER_ID>  (1) 
0000225E00000001

>  <PUBCHEM_MMFF94_ENERGY>  (1) 
20.7442

>  <PUBCHEM_FEATURE_SELFOVERLAP>  (1) 
30.528

>  <PUBCHEM_SHAPE_FINGERPRINT>  (1) 
11062470 55 17917994996738288992
12032990 46 18409736170408317203
12932764 1 13758075152000576556
14144814 61 18410575076331672288
14325111 11 18410855451575208928
18186145 218 18336548222561205956
190213 19 17530684320424323180
20645477 70 18272090453221987806
23402539 116 18272925025022012213
23402655 69 18343576322587750509
23463225 33 18335983086543290326
23559900 14 18343864408035834202
449060 50 18338799017658700252

>  <PUBCHEM_SHAPE_MULTIPOLES>  (1) 
218.25
7.3
1.38
0.58
1.93
0.01
0
-0.92
0
-0.15
0
0.04
-0.02
0

>  <PUBCHEM_SHAPE_SELFOVERLAP>  (1) 
435.795

>  <PUBCHEM_SHAPE_VOLUME>  (1) 
130

>  <PUBCHEM_COORDINATE_TYPE>  (1) 
2
5
10

$$$$
