8806
     RDKit          3D

 17 18  0  0  0  0  0  0  0  0999 V2000
    5.0433    1.8715   -0.3241 Cl  0  0  0  0  0  0  0  0  0  0  0  0
   -4.9709    1.9820   -0.5250 Cl  0  0  0  0  0  0  0  0  0  0  0  0
   -0.0600   -3.5672   -0.6802 N   0  0  0  0  0  0  0  0  0  0  0  0
   -0.0186   -1.2277    0.5698 C   0  0  0  0  0  0  0  0  0  0  0  0
    1.2398   -0.4583    0.3482 C   0  0  0  0  0  0  0  0  0  0  0  0
   -1.2842   -0.4084    0.2895 C   0  0  0  0  0  0  0  0  0  0  0  0
    1.7103    0.4082    1.3345 C   0  0  0  0  0  0  0  0  0  0  0  0
   -1.2892    0.4409   -0.7909 C   0  0  0  0  0  0  0  0  0  0  0  0
    1.9455   -0.6046   -0.8462 C   0  0  0  0  0  0  0  0  0  0  0  0
   -2.3608   -0.5567    1.1310 C   0  0  0  0  0  0  0  0  0  0  0  0
    2.8865    1.1287    1.1268 C   0  0  0  0  0  0  0  0  0  0  0  0
   -2.4400    1.1871   -1.0451 C   0  0  0  0  0  0  0  0  0  0  0  0
    3.1218    0.1158   -1.0541 C   0  0  0  0  0  0  0  0  0  0  0  0
   -3.5116    0.1893    0.8767 C   0  0  0  0  0  0  0  0  0  0  0  0
   -0.0530   -2.5441   -0.1319 C   0  0  0  0  0  0  0  0  0  0  0  0
    3.5924    0.9824   -0.0675 C   0  0  0  0  0  0  0  0  0  0  0  0
   -3.5513    1.0612   -0.2115 C   0  0  0  0  0  0  0  0  0  0  0  0
  1 16  1  0
  2 17  1  0
  3 15  3  0
  4  5  1  0
  4  6  1  0
  4 15  1  0
  5  7  2  0
  5  9  1  0
  6  8  2  0
  6 10  1  0
  7 11  1  0
  8 12  1  0
  9 13  2  0
 10 14  2  0
 11 16  2  0
 12 17  2  0
 13 16  1  0
 14 17  1  0
M  END
>  <PUBCHEM_COMPOUND_CID>  (1) 
8806

>  <PUBCHEM_CONFORMER_RMSD>  (1) 
0.6

>  <PUBCHEM_CONFORMER_DIVERSEORDER>  (1) 
1
2

>  <PUBCHEM_MMFF94_PARTIAL_CHARGES>  (1) 
25
1 -0.18
10 -0.15
11 -0.15
12 -0.15
13 -0.15
14 -0.15
15 0.36
16 0.18
17 0.18
19 0.15
2 -0.18
20 0.15
21 0.15
22 0.15
23 0.15
24 0.15
25 0.15
26 0.15
3 -0.56
4 0.49
5 -0.14
6 -0.14
7 -0.15
8 -0.15
9 -0.15

>  <PUBCHEM_EFFECTIVE_ROTOR_COUNT>  (1) 
2

>  <PUBCHEM_PHARMACOPHORE_FEATURES>  (1) 
3
1 3 acceptor
6 5 7 9 11 13 16 rings
6 6 8 10 12 14 17 rings

>  <PUBCHEM_HEAVY_ATOM_COUNT>  (1) 
17

>  <PUBCHEM_ATOM_DEF_STEREO_COUNT>  (1) 
0

>  <PUBCHEM_ATOM_UDEF_STEREO_COUNT>  (1) 
0

>  <PUBCHEM_BOND_DEF_STEREO_COUNT>  (1) 
0

>  <PUBCHEM_BOND_UDEF_STEREO_COUNT>  (1) 
0

>  <PUBCHEM_ISOTOPIC_ATOM_COUNT>  (1) 
0

>  <PUBCHEM_COMPONENT_COUNT>  (1) 
1

>  <PUBCHEM_CACTVS_TAUTO_COUNT>  (1) 
1

>  <PUBCHEM_CONFORMER_ID>  (1) 
0000226600000001

>  <PUBCHEM_MMFF94_ENERGY>  (1) 
43.9726

>  <PUBCHEM_FEATURE_SELFOVERLAP>  (1) 
15.223

>  <PUBCHEM_SHAPE_FINGERPRINT>  (1) 
10165383 225 18269854127663377272
10498660 4 18408604747226649749
10618630 7 9583524226159387888
107287 299 18337114445506728843
11031198 65 18268988700733447199
11132069 177 17894636937474290949
12138202 97 18200032975116333086
12251169 10 15719110257875988936
12403259 415 18336842925831407790
12500047 106 18270119140668706502
12633257 1 14418136248688609408
12707595 3 9727341446584149001
12730499 353 18340212886775261963
13681431 1 17621601614028467831
13764800 53 18187088334375219417
13955234 65 18120659033181009811
14341114 328 16081380669016200148
15309172 13 18410859871286467267
15775835 57 18260264165955675248
15885798 251 9079118886251076583
16945 1 17749397008905954563
17134986 127 18411416194005266926
17357779 13 17555158517499433111
17539 30 17839452624590623502
17834072 32 18336264643146102332
17980427 23 17530969124533465037
1813 80 11170196402039821010
18186145 218 18130797749753257642
200 152 11023832773020543952
20281475 54 10519980500155585969
20361792 2 7925910400276787475
204376 136 18411136943879514335
20645477 56 18268439103991598312
20671657 53 13038907741845785402
20871998 22 9079107856363792070
21296965 67 9295285045335431207
21524375 3 18335414660227303770
21618674 25 18334293116050152365
23227448 37 18123191470278807020
23402539 116 18342731940686484068
23402655 69 17632580435247461328
23403322 49 10880003449151368740
23557571 272 18340213010574926352
23559900 14 17314522422043049811
25 1 17917720093024663554
3060560 45 18271801276846247111
3082319 5 15554446301299464521
3729539 64 18052283729628945902
458136 41 18341623564119790475
495365 180 18268697317272401043
5104073 3 17822579292097437081
633830 44 17702123411974955777
6442390 28 18412552037078274587
7364860 26 18123747552336792191
7808743 9 18262800808264772804
81228 2 17907571785094390715
90316 7 16226044466518792309
9925002 15 17687479265924090511

>  <PUBCHEM_SHAPE_MULTIPOLES>  (1) 
348.61
8.51
2.5
1.21
0.01
2.17
-0.14
-8.14
0.73
-0.23
0.68
0.13
-0.05
0.71

>  <PUBCHEM_SHAPE_SELFOVERLAP>  (1) 
732.823

>  <PUBCHEM_SHAPE_VOLUME>  (1) 
196.9

>  <PUBCHEM_COORDINATE_TYPE>  (1) 
2
5
10

$$$$
