8812
     RDKit          3D

 20 20  0  0  0  0  0  0  0  0999 V2000
   -6.3818   -0.7940    0.0051 S   0  0  0  0  0  0  0  0  0  0  0  0
   -6.1609   -2.4114    0.0976 O   0  0  0  0  0  0  0  0  0  0  0  0
   -7.0373   -0.3841    1.2384 O   0  0  0  0  0  0  0  0  0  0  0  0
   -6.9782   -0.4932   -1.2872 O   0  0  0  0  0  0  0  0  0  0  0  0
    4.2217    0.7149   -0.0235 C   0  0  0  0  0  0  0  0  0  0  0  0
    2.8217    0.1004    0.0422 C   0  0  0  0  0  0  0  0  0  0  0  0
    5.3042   -0.3649    0.0434 C   0  0  0  0  0  0  0  0  0  0  0  0
    1.6982    1.1382   -0.0441 C   0  0  0  0  0  0  0  0  0  0  0  0
    6.7045    0.2439   -0.0606 C   0  0  0  0  0  0  0  0  0  0  0  0
    0.2972    0.5233    0.0466 C   0  0  0  0  0  0  0  0  0  0  0  0
    7.7860   -0.8340    0.0406 C   0  0  0  0  0  0  0  0  0  0  0  0
   -0.8203    1.5709   -0.0299 C   0  0  0  0  0  0  0  0  0  0  0  0
    9.2084   -0.2746   -0.0337 C   0  0  0  0  0  0  0  0  0  0  0  0
   -2.2083    0.9813   -0.0208 C   0  0  0  0  0  0  0  0  0  0  0  0
   10.2863   -1.3449    0.0409 C   0  0  0  0  0  0  0  0  0  0  0  0
   -2.8292    0.6413   -1.2227 C   0  0  0  0  0  0  0  0  0  0  0  0
   -2.8707    0.7749    1.1893 C   0  0  0  0  0  0  0  0  0  0  0  0
   -4.7750   -0.1114   -0.0045 C   0  0  0  0  0  0  0  0  0  0  0  0
   -4.1125    0.0949   -1.2146 C   0  0  0  0  0  0  0  0  0  0  0  0
   -4.1541    0.2285    1.1974 C   0  0  0  0  0  0  0  0  0  0  0  0
  1  2  1  0
  1  3  2  0
  1  4  2  0
  1 18  1  0
  5  6  1  0
  5  7  1  0
  6  8  1  0
  7  9  1  0
  8 10  1  0
  9 11  1  0
 10 12  1  0
 11 13  1  0
 12 14  1  0
 13 15  1  0
 14 16  2  0
 14 17  1  0
 16 19  1  0
 17 20  2  0
 18 19  2  0
 18 20  1  0
M  END
>  <PUBCHEM_COMPOUND_CID>  (1) 
8812

>  <PUBCHEM_CONFORMER_RMSD>  (1) 
1

>  <PUBCHEM_CONFORMER_DIVERSEORDER>  (1) 
1
11
16
35
4
60
76
42
52
15
37
46
74
68
87
7
44
59
55
82
80
43
9
14
78
45
39
38
93
26
89
64
79
20
75
12
19
53
58
31
17
66
5
22
8
63
71
81
57
54
51
65
33
36
62
69
24
91
6
13
10
41
70
50
85
61
88
40
73
3
2
90
92
56
67
34
32
23
48
47
27
83
30
49
72
86
21
28
25
77
29
84
18

>  <PUBCHEM_MMFF94_PARTIAL_CHARGES>  (1) 
16
1 1.49
12 0.14
14 -0.14
16 -0.15
17 -0.15
18 -0.01
19 -0.15
2 -0.68
20 -0.15
3 -0.65
4 -0.65
42 0.15
43 0.15
44 0.15
45 0.15
46 0.5

>  <PUBCHEM_EFFECTIVE_ROTOR_COUNT>  (1) 
10

>  <PUBCHEM_PHARMACOPHORE_FEATURES>  (1) 
6
1 15 hydrophobe
1 2 acceptor
1 3 acceptor
1 4 acceptor
4 1 2 3 4 anion
6 14 16 17 18 19 20 rings

>  <PUBCHEM_HEAVY_ATOM_COUNT>  (1) 
20

>  <PUBCHEM_ATOM_DEF_STEREO_COUNT>  (1) 
0

>  <PUBCHEM_ATOM_UDEF_STEREO_COUNT>  (1) 
0

>  <PUBCHEM_BOND_DEF_STEREO_COUNT>  (1) 
0

>  <PUBCHEM_BOND_UDEF_STEREO_COUNT>  (1) 
0

>  <PUBCHEM_ISOTOPIC_ATOM_COUNT>  (1) 
0

>  <PUBCHEM_COMPONENT_COUNT>  (1) 
1

>  <PUBCHEM_CACTVS_TAUTO_COUNT>  (1) 
1

>  <PUBCHEM_CONFORMER_ID>  (1) 
0000226C00000001

>  <PUBCHEM_MMFF94_ENERGY>  (1) 
17.2319

>  <PUBCHEM_FEATURE_SELFOVERLAP>  (1) 
30.503

>  <PUBCHEM_SHAPE_FINGERPRINT>  (1) 
10 15 13758356665626900188
10299344 5 17846499236479282612
106641 1 12463568500420084125
10670039 82 14345787240950337101
10968037 39 14995999952465069985
11315181 36 13984668039886007332
12091667 2 18412544276309630560
12498461 61 18059856217113737551
125118 31 10159688107004823298
13288520 33 18407759257750906573
13668630 136 18333449854576012346
13885169 127 18335983077959215173
14123256 10 17240483606809204538
14251764 18 17632578266826767668
14251764 46 18411418405786615820
14344974 52 12973898038832581428
14729087 3 10159701291630723178
15183329 4 14562526271974807612
15461852 350 13623538964933957976
155225 1 8790891778933759639
15690457 1 18411134732804910618
15716309 27 17989487433341662660
17093844 174 11599999959850762517
1818759 1 18343025480711710438
20281389 69 10735880564968352418
21095086 128 18272088280522131214
21150785 3 16950282906200306652
21267235 1 18411982456064418484
21315763 28 18408886222983965252
21360443 89 14907884017115968941
22224240 67 16056876936063335564
22288116 15 13335024953954015753
23035841 295 18202283619082409012
23559900 14 15936695981515335181
246663 6 18341896286327197940
33532 11 18411699851743508458
4325135 7 17967250897359909558
59521270 166 17458059331284403639
59682541 35 17917708016299268418
636775 72 10519715483647489579
67123 10 18409167715403918884
8209 1 13912324577995225644
9953998 17 15339114649991798404

>  <PUBCHEM_SHAPE_MULTIPOLES>  (1) 
397.83
30.43
1.36
1.03
63.3
0.4
0.02
16.66
-0.28
-0.89
-0.03
-1.91
-0.05
-0.09

>  <PUBCHEM_SHAPE_SELFOVERLAP>  (1) 
768.149

>  <PUBCHEM_SHAPE_VOLUME>  (1) 
242.3

>  <PUBCHEM_COORDINATE_TYPE>  (1) 
2
5
10

$$$$
