8817
     RDKit          3D

  9  9  0  0  0  0  0  0  0  0999 V2000
   -0.9839   -1.2054   -0.0646 N   0  0  0  0  0  0  0  0  0  0  0  0
   -1.7444   -0.0916    0.0296 C   0  0  0  0  0  0  0  0  0  0  0  0
    0.9622    0.2286   -0.1049 C   0  0  0  0  0  0  0  0  0  0  0  0
   -1.2336    1.1959    0.0617 C   0  0  0  0  0  0  0  0  0  0  0  0
    0.1466    1.3505   -0.0072 C   0  0  0  0  0  0  0  0  0  0  0  0
    0.3531   -1.0158   -0.1296 C   0  0  0  0  0  0  0  0  0  0  0  0
   -3.2211   -0.2947    0.1015 C   0  0  0  0  0  0  0  0  0  0  0  0
    2.4061    0.3569   -0.1787 C   0  0  0  0  0  0  0  0  0  0  0  0
    3.3150   -0.5242    0.2922 C   0  0  0  0  0  0  0  0  0  0  0  0
  1  2  2  0
  1  6  1  0
  2  4  1  0
  2  7  1  0
  3  5  1  0
  3  6  2  0
  3  8  1  0
  4  5  2  0
  8  9  2  0
M  END
>  <PUBCHEM_COMPOUND_CID>  (1) 
8817

>  <PUBCHEM_CONFORMER_RMSD>  (1) 
0.4

>  <PUBCHEM_CONFORMER_DIVERSEORDER>  (1) 
1
2

>  <PUBCHEM_MMFF94_PARTIAL_CHARGES>  (1) 
15
1 -0.62
10 0.15
11 0.15
12 0.15
16 0.15
17 0.15
18 0.15
2 0.17
3 0.03
4 -0.15
5 -0.15
6 0.16
7 0.14
8 -0.18
9 -0.3

>  <PUBCHEM_EFFECTIVE_ROTOR_COUNT>  (1) 
1

>  <PUBCHEM_PHARMACOPHORE_FEATURES>  (1) 
3
1 1 acceptor
1 9 hydrophobe
6 1 2 3 4 5 6 rings

>  <PUBCHEM_HEAVY_ATOM_COUNT>  (1) 
9

>  <PUBCHEM_ATOM_DEF_STEREO_COUNT>  (1) 
0

>  <PUBCHEM_ATOM_UDEF_STEREO_COUNT>  (1) 
0

>  <PUBCHEM_BOND_DEF_STEREO_COUNT>  (1) 
0

>  <PUBCHEM_BOND_UDEF_STEREO_COUNT>  (1) 
0

>  <PUBCHEM_ISOTOPIC_ATOM_COUNT>  (1) 
0

>  <PUBCHEM_COMPONENT_COUNT>  (1) 
1

>  <PUBCHEM_CACTVS_TAUTO_COUNT>  (1) 
1

>  <PUBCHEM_CONFORMER_ID>  (1) 
0000227100000001

>  <PUBCHEM_MMFF94_ENERGY>  (1) 
23.0831

>  <PUBCHEM_FEATURE_SELFOVERLAP>  (1) 
15.223

>  <PUBCHEM_SHAPE_FINGERPRINT>  (1) 
10219947 1 18412830200370916719
10857977 72 18341323457247544952
11062470 55 13614525155692931971
12032990 46 18410582785624161479
14325111 11 18410856534107531532
15310529 11 16660636358497071444
16945 1 18413394236798057205
193761 8 17690562979206205685
21040471 1 18267590095851514908
23235685 24 18412260631851786773
23402655 69 18195789788547739861
23552423 10 18044940318514064372
2748010 2 18123757443661844687
29004967 10 18335147504808370169
369184 2 15554444081017429326
5084963 1 18409730655496183928

>  <PUBCHEM_SHAPE_MULTIPOLES>  (1) 
180.23
4.43
1.28
0.63
0.88
0.15
0
-0.79
0.36
-0.17
-0.01
0.05
0.01
-0.08

>  <PUBCHEM_SHAPE_SELFOVERLAP>  (1) 
369.077

>  <PUBCHEM_SHAPE_VOLUME>  (1) 
103.9

>  <PUBCHEM_COORDINATE_TYPE>  (1) 
2
5
10

$$$$
