8831
     RDKit          3D

 18 17  0  0  0  0  0  0  0  0999 V2000
    2.9098   -0.5748   -0.1422 O   0  0  0  0  0  0  0  0  0  0  0  0
   -2.8851   -0.0393    0.5496 O   0  0  0  0  0  0  0  0  0  0  0  0
    0.8867    0.3979   -0.6731 O   0  0  0  0  0  0  0  0  0  0  0  0
   -3.9745   -1.7641   -0.5310 O   0  0  0  0  0  0  0  0  0  0  0  0
   -0.3328   -2.2329   -0.5622 C   0  0  0  0  0  0  0  0  0  0  0  0
   -0.7750   -1.9599    0.8809 C   0  0  0  0  0  0  0  0  0  0  0  0
    1.1676   -2.0167   -0.7615 C   0  0  0  0  0  0  0  0  0  0  0  0
   -2.2591   -2.2436    1.0976 C   0  0  0  0  0  0  0  0  0  0  0  0
    4.9393    0.5839    0.5090 C   0  0  0  0  0  0  0  0  0  0  0  0
   -3.2745    2.3347    0.2383 C   0  0  0  0  0  0  0  0  0  0  0  0
    3.4722    0.7201    0.0924 C   0  0  0  0  0  0  0  0  0  0  0  0
   -3.6698    0.9141   -0.1737 C   0  0  0  0  0  0  0  0  0  0  0  0
    1.5977   -0.5862   -0.5222 C   0  0  0  0  0  0  0  0  0  0  0  0
   -3.1459   -1.3478    0.2684 C   0  0  0  0  0  0  0  0  0  0  0  0
    5.7652   -0.1086   -0.5772 C   0  0  0  0  0  0  0  0  0  0  0  0
    5.5306    1.9541    0.8327 C   0  0  0  0  0  0  0  0  0  0  0  0
   -1.7976    2.6089   -0.0529 C   0  0  0  0  0  0  0  0  0  0  0  0
   -4.1549    3.3601   -0.4728 C   0  0  0  0  0  0  0  0  0  0  0  0
  1 11  1  0
  1 13  1  0
  2 12  1  0
  2 14  1  0
  3 13  2  0
  4 14  2  0
  5  6  1  0
  5  7  1  0
  6  8  1  0
  7 13  1  0
  8 14  1  0
  9 11  1  0
  9 15  1  0
  9 16  1  0
 10 12  1  0
 10 17  1  0
 10 18  1  0
M  END
>  <PUBCHEM_COMPOUND_CID>  (1) 
8831

>  <PUBCHEM_CONFORMER_RMSD>  (1) 
1.2

>  <PUBCHEM_CONFORMER_DIVERSEORDER>  (1) 
1
8
28
12
30
2
17
31
33
19
27
29
25
21
10
3
24
23
15
22
13
36
40
14
18
20
39
35
7
38
9
37
6
5
34
26
4
11
16
32

>  <PUBCHEM_MMFF94_PARTIAL_CHARGES>  (1) 
10
1 -0.43
11 0.28
12 0.28
13 0.66
14 0.66
2 -0.43
3 -0.57
4 -0.57
7 0.06
8 0.06

>  <PUBCHEM_EFFECTIVE_ROTOR_COUNT>  (1) 
11

>  <PUBCHEM_PHARMACOPHORE_FEATURES>  (1) 
5
1 3 acceptor
1 4 acceptor
3 10 17 18 hydrophobe
3 9 15 16 hydrophobe
4 5 6 7 8 hydrophobe

>  <PUBCHEM_HEAVY_ATOM_COUNT>  (1) 
18

>  <PUBCHEM_ATOM_DEF_STEREO_COUNT>  (1) 
0

>  <PUBCHEM_ATOM_UDEF_STEREO_COUNT>  (1) 
0

>  <PUBCHEM_BOND_DEF_STEREO_COUNT>  (1) 
0

>  <PUBCHEM_BOND_UDEF_STEREO_COUNT>  (1) 
0

>  <PUBCHEM_ISOTOPIC_ATOM_COUNT>  (1) 
0

>  <PUBCHEM_COMPONENT_COUNT>  (1) 
1

>  <PUBCHEM_CACTVS_TAUTO_COUNT>  (1) 
1

>  <PUBCHEM_CONFORMER_ID>  (1) 
0000227F00000001

>  <PUBCHEM_MMFF94_ENERGY>  (1) 
14.6201

>  <PUBCHEM_FEATURE_SELFOVERLAP>  (1) 
25.373

>  <PUBCHEM_SHAPE_FINGERPRINT>  (1) 
10670039 82 18263945365720208852
11370993 70 18265050232781967877
12107183 9 17972869277345321306
12596602 18 17023182803000946168
12892183 10 18187085083122224578
13402501 40 18343020020922190401
14123250 116 17700987535023102665
14123255 352 18411417284932182776
14251732 17 18339925922640689750
14251764 30 11742968409213496149
14251764 38 18337111271463048308
14251764 75 17910961240779055793
14466204 15 18411694401150000280
15256400 18 18410015451036378988
17834072 32 18338237055089022561
20765182 40 18342730798420408072
21033648 29 18059564828608014520
21279426 13 18270409265894518910
21315764 268 18270676588690166984
21401589 2 18337680719907256321
23402539 116 18268707380476442327
23559900 14 18127410043239458594
351380 180 18340485681006077218
3524813 1 18130503144982402329
526903 126 18267024964624452017
5939293 188 16679781841440030309
7064713 232 18261397715247329860
90127 26 18339650035679980442
9981440 41 18334014977994408907

>  <PUBCHEM_SHAPE_MULTIPOLES>  (1) 
346.95
11.77
3.66
0.93
14.63
1.47
0.08
7.6
0.68
-4.72
0.06
0.15
-0.25
1.4

>  <PUBCHEM_SHAPE_SELFOVERLAP>  (1) 
652.377

>  <PUBCHEM_SHAPE_VOLUME>  (1) 
216

>  <PUBCHEM_COORDINATE_TYPE>  (1) 
2
5
10

$$$$
