8845
     RDKit          3D

  9  8  0  0  1  0  0  0  0  0999 V2000
   -1.9143    0.5148    1.3963 O   0  0  0  0  0  0  0  0  0  0  0  0
   -2.4834   -1.6138   -0.1877 O   0  0  0  0  0  0  0  0  0  0  0  0
    3.0673   -1.2081    0.4914 O   0  0  0  0  0  0  0  0  0  0  0  0
   -0.4712    1.2214   -0.4079 C   0  0  0  0  0  0  0  0  0  0  0  0
    0.6613    0.2430   -0.0585 C   0  0  0  0  0  0  0  0  0  0  0  0
   -1.8591    0.7217   -0.0009 C   0  0  0  0  0  0  0  0  0  0  0  0
    2.0384    0.7994   -0.4146 C   0  0  0  0  0  0  0  0  0  0  0  0
   -2.2215   -0.5495   -0.7390 C   0  0  0  0  0  0  0  0  0  0  0  0
    3.1824   -0.1289   -0.0792 C   0  0  0  0  0  0  0  0  0  0  0  0
  1  6  1  0
  2  8  2  0
  3  9  2  0
  4  5  1  0
  4  6  1  0
  5  7  1  0
  6  8  1  0
  7  9  1  0
M  END
>  <PUBCHEM_COMPOUND_CID>  (1) 
8845

>  <PUBCHEM_CONFORMER_RMSD>  (1) 
0.6

>  <PUBCHEM_CONFORMER_DIVERSEORDER>  (1) 
1
67
83
21
37
84
25
39
81
76
7
60
50
9
74
2
71
79
52
22
58
10
73
78
38
72
46
63
54
75
8
6
34
66
44
45
64
3
82
56
5
65
20
27
40
48
14
70
35
80
18
77
11
31
32
24
62
43
61
16
69
49
19
68
30
13
23
28
55
57
42
47
12
26
59
15
4
29
41
53
17
36
33
51

>  <PUBCHEM_MMFF94_PARTIAL_CHARGES>  (1) 
10
1 -0.68
17 0.06
18 0.06
19 0.4
2 -0.57
3 -0.57
6 0.34
7 0.06
8 0.45
9 0.45

>  <PUBCHEM_EFFECTIVE_ROTOR_COUNT>  (1) 
5

>  <PUBCHEM_PHARMACOPHORE_FEATURES>  (1) 
4
1 1 acceptor
1 1 donor
1 2 acceptor
1 3 acceptor

>  <PUBCHEM_HEAVY_ATOM_COUNT>  (1) 
9

>  <PUBCHEM_ATOM_DEF_STEREO_COUNT>  (1) 
0

>  <PUBCHEM_ATOM_UDEF_STEREO_COUNT>  (1) 
1

>  <PUBCHEM_BOND_DEF_STEREO_COUNT>  (1) 
0

>  <PUBCHEM_BOND_UDEF_STEREO_COUNT>  (1) 
0

>  <PUBCHEM_ISOTOPIC_ATOM_COUNT>  (1) 
0

>  <PUBCHEM_COMPONENT_COUNT>  (1) 
1

>  <PUBCHEM_CACTVS_TAUTO_COUNT>  (1) 
8

>  <PUBCHEM_CONFORMER_ID>  (1) 
0000228D00000001

>  <PUBCHEM_MMFF94_ENERGY>  (1) 
2.1821

>  <PUBCHEM_FEATURE_SELFOVERLAP>  (1) 
20.304

>  <PUBCHEM_SHAPE_FINGERPRINT>  (1) 
10149128 111 9943806711712850166
10857977 72 16630526262519327553
12932764 1 18408612443913318436
14390081 3 8790878584313710854
20645464 45 13614526259478616660
23552423 10 18260267494492110564
3248919 1 17560804303470036852

>  <PUBCHEM_SHAPE_MULTIPOLES>  (1) 
167.61
5.14
1.33
0.89
2.85
0.29
-0.19
1.81
-0.16
-0.32
0.06
-0.4
-0.07
-0.5

>  <PUBCHEM_SHAPE_SELFOVERLAP>  (1) 
307.587

>  <PUBCHEM_SHAPE_VOLUME>  (1) 
104.9

>  <PUBCHEM_COORDINATE_TYPE>  (1) 
2
5
10

$$$$
