8851
     RDKit          3D

  9  8  0  0  0  0  0  0  0  0999 V2000
   -1.7381   -1.6774    0.1623 S   0  0  0  0  0  0  0  0  0  0  0  0
    1.3936   -0.0022   -0.0953 C   0  0  0  0  0  0  0  0  0  0  0  0
    0.0239    0.3039   -0.7838 C   0  0  0  0  0  0  0  0  0  0  0  0
   -1.3511    0.1071   -0.0812 C   0  0  0  0  0  0  0  0  0  0  0  0
    2.5296   -0.3115   -1.0780 C   0  0  0  0  0  0  0  0  0  0  0  0
    1.7946    1.2682    0.6958 C   0  0  0  0  0  0  0  0  0  0  0  0
    1.2807   -1.1476    0.9286 C   0  0  0  0  0  0  0  0  0  0  0  0
   -2.4503    0.6500   -1.0191 C   0  0  0  0  0  0  0  0  0  0  0  0
   -1.4829    0.8095    1.2707 C   0  0  0  0  0  0  0  0  0  0  0  0
  1  4  1  0
  2  3  1  0
  2  5  1  0
  2  6  1  0
  2  7  1  0
  3  4  1  0
  4  8  1  0
  4  9  1  0
M  END
>  <PUBCHEM_COMPOUND_CID>  (1) 
8851

>  <PUBCHEM_CONFORMER_RMSD>  (1) 
0.4

>  <PUBCHEM_CONFORMER_DIVERSEORDER>  (1) 
1
2
3

>  <PUBCHEM_MMFF94_PARTIAL_CHARGES>  (1) 
3
1 -0.41
27 0.18
4 0.23

>  <PUBCHEM_EFFECTIVE_ROTOR_COUNT>  (1) 
2

>  <PUBCHEM_PHARMACOPHORE_FEATURES>  (1) 
2
3 4 8 9 hydrophobe
4 2 5 6 7 hydrophobe

>  <PUBCHEM_HEAVY_ATOM_COUNT>  (1) 
9

>  <PUBCHEM_ATOM_DEF_STEREO_COUNT>  (1) 
0

>  <PUBCHEM_ATOM_UDEF_STEREO_COUNT>  (1) 
0

>  <PUBCHEM_BOND_DEF_STEREO_COUNT>  (1) 
0

>  <PUBCHEM_BOND_UDEF_STEREO_COUNT>  (1) 
0

>  <PUBCHEM_ISOTOPIC_ATOM_COUNT>  (1) 
0

>  <PUBCHEM_COMPONENT_COUNT>  (1) 
1

>  <PUBCHEM_CACTVS_TAUTO_COUNT>  (1) 
1

>  <PUBCHEM_CONFORMER_ID>  (1) 
0000229300000001

>  <PUBCHEM_MMFF94_ENERGY>  (1) 
36.7617

>  <PUBCHEM_FEATURE_SELFOVERLAP>  (1) 
10.149

>  <PUBCHEM_SHAPE_FINGERPRINT>  (1) 
12423570 1 10332310787138327798
12897270 3 17896036705659565583
12932741 1 18342174496390330988
12932764 1 18261110772766038645
15310529 11 17168153303638259051
15775835 57 18187365410967594263
16945 1 18411982416612796560
18185500 45 18113897199425120731
18186145 218 18270387314153080125
207724 885 17771931358014749904
21040471 1 18040707039680316999
23235685 24 18201166446818065619
23235687 12 12685106885664518950
23552423 10 17675919902233035683
24536 1 17917990576884560664
29004967 10 17632307761085715758
3248919 1 18131915953289630940
369184 2 18336817658818412785
5084963 1 18262531406102904006

>  <PUBCHEM_SHAPE_MULTIPOLES>  (1) 
189.07
3.55
1.44
1.26
0.28
0.43
-0.06
-0.09
0.67
-0.34
-0.3
0.01
-0.17
0.21

>  <PUBCHEM_SHAPE_SELFOVERLAP>  (1) 
335.952

>  <PUBCHEM_SHAPE_VOLUME>  (1) 
125.9

>  <PUBCHEM_COORDINATE_TYPE>  (1) 
2
5
10

$$$$
