8853
     RDKit          2D

 21 20  0  0  0  0  0  0  0  0999 V2000
    0.0000    0.0000    0.0000 Si  0  0  0  0  0  4  0  0  0  0  0  0
    0.0000    0.0000    0.0000 Si  0  0  0  0  0  4  0  0  0  0  0  0
    0.0000    0.0000    0.0000 Si  0  0  0  0  0  4  0  0  0  0  0  0
    0.0000    0.0000    0.0000 Si  0  0  0  0  0  4  0  0  0  0  0  0
    0.0000    0.0000    0.0000 Si  0  0  0  0  0  4  0  0  0  0  0  0
    0.0000    0.0000    0.0000 O   0  0  0  0  0  0  0  0  0  0  0  0
    0.0000    0.0000    0.0000 O   0  0  0  0  0  0  0  0  0  0  0  0
    0.0000    0.0000    0.0000 O   0  0  0  0  0  0  0  0  0  0  0  0
    0.0000    0.0000    0.0000 O   0  0  0  0  0  0  0  0  0  0  0  0
    0.0000    0.0000    0.0000 C   0  0  0  0  0  0  0  0  0  0  0  0
    0.0000    0.0000    0.0000 C   0  0  0  0  0  0  0  0  0  0  0  0
    0.0000    0.0000    0.0000 C   0  0  0  0  0  0  0  0  0  0  0  0
    0.0000    0.0000    0.0000 C   0  0  0  0  0  0  0  0  0  0  0  0
    0.0000    0.0000    0.0000 C   0  0  0  0  0  0  0  0  0  0  0  0
    0.0000    0.0000    0.0000 C   0  0  0  0  0  0  0  0  0  0  0  0
    0.0000    0.0000    0.0000 C   0  0  0  0  0  0  0  0  0  0  0  0
    0.0000    0.0000    0.0000 C   0  0  0  0  0  0  0  0  0  0  0  0
    0.0000    0.0000    0.0000 C   0  0  0  0  0  0  0  0  0  0  0  0
    0.0000    0.0000    0.0000 C   0  0  0  0  0  0  0  0  0  0  0  0
    0.0000    0.0000    0.0000 C   0  0  0  0  0  0  0  0  0  0  0  0
    0.0000    0.0000    0.0000 C   0  0  0  0  0  0  0  0  0  0  0  0
  1  6  1  0
  1  7  1  0
  1 10  1  0
  1 11  1  0
  2  6  1  0
  2  8  1  0
  2 12  1  0
  2 13  1  0
  3  7  1  0
  3  9  1  0
  3 14  1  0
  3 15  1  0
  4  8  1  0
  4 16  1  0
  4 17  1  0
  4 18  1  0
  5  9  1  0
  5 19  1  0
  5 20  1  0
  5 21  1  0
M  END
>  <PUBCHEM_COMPOUND_CID>  (1) 
8853

>  <PUBCHEM_CONFORMER_RMSD>  (1) 
1

>  <PUBCHEM_CONFORMER_DIVERSEORDER>  (1) 
128
254
479
101
471
106
231
332
293
550
266
422
239
533
9
553
314
338
117
527
423
470
487
51
315
447
18
405
456
432
94
2
466
560
476
38
149
454
14
68
396
42
540
147
19
424
103
3
401
87
472
107
32
535
440
110
355
538
305
130
475
37
327
52
345
478
522
74
385
89
200
534
247
196
67
80
451
79
322
8
521
329
297
354
102
173
28
427
498
259
419
288
333
17
284
13
536
291
450
36
509
492
162
26
499
303
310
416
6
458
16
352
151
320
542
554
138
294
83
304
379
124
530
411
532
270
337
31
559
5
348
434
437
312
160
523
335
283
235
444
44
461
548
313
460
339
220
12
551
462
481
282
280
331
491
340
465
386
57
415
439
63
344
457
515
296
343
497
496
346
370
506
402
55
225
445
504
179
408
76
505
342
507
46
59
407
40
1
34
474
20
377
242
357
25
449
384
188
420
4
104
323
429
82
169
306
48
430
510
167
426
358
230
514
428
452
187
253
433
364
226
201
116
248
529
556
237
136
387
75
23
212
99
65
11
453
71
143
56
146
93
126
125
359
171
97
105
122
7
363
216
66
35
191
84
210
172
298
49
300
81
69
190
91
77
260
27
112
29
127
21
109
111
134

>  <PUBCHEM_MMFF94_PARTIAL_CHARGES>  (1) 
21
1 0.76
10 -0.08
11 -0.08
12 -0.08
13 -0.08
14 -0.08
15 -0.08
16 -0.08
17 -0.08
18 -0.08
19 -0.08
2 0.76
20 -0.08
21 -0.08
3 0.76
4 0.54
5 0.54
6 -0.59
7 -0.59
8 -0.59
9 -0.59

>  <PUBCHEM_EFFECTIVE_ROTOR_COUNT>  (1) 
8

>  <PUBCHEM_PHARMACOPHORE_FEATURES>  (1) 
0

>  <PUBCHEM_HEAVY_ATOM_COUNT>  (1) 
21

>  <PUBCHEM_ATOM_DEF_STEREO_COUNT>  (1) 
0

>  <PUBCHEM_ATOM_UDEF_STEREO_COUNT>  (1) 
0

>  <PUBCHEM_BOND_DEF_STEREO_COUNT>  (1) 
0

>  <PUBCHEM_BOND_UDEF_STEREO_COUNT>  (1) 
0

>  <PUBCHEM_ISOTOPIC_ATOM_COUNT>  (1) 
0

>  <PUBCHEM_COMPONENT_COUNT>  (1) 
1

>  <PUBCHEM_CACTVS_TAUTO_COUNT>  (1) 
1

$$$$
