8855
     RDKit          3D

  6  5  0  0  0  0  0  0  0  0999 V2000
    2.3785   -0.9724   -0.0109 Cl  0  0  0  0  0  0  0  0  0  0  0  0
    1.1413    1.3707   -0.0028 O   0  0  0  0  0  0  0  0  0  0  0  0
   -1.4742    0.3876    0.0018 C   0  0  0  0  0  0  0  0  0  0  0  0
   -0.2905   -0.5768    0.0214 C   0  0  0  0  0  0  0  0  0  0  0  0
   -2.7994   -0.3565   -0.0125 C   0  0  0  0  0  0  0  0  0  0  0  0
    1.0443    0.1475    0.0029 C   0  0  0  0  0  0  0  0  0  0  0  0
  1  6  1  0
  2  6  2  0
  3  4  1  0
  3  5  1  0
  4  6  1  0
M  END
>  <PUBCHEM_COMPOUND_CID>  (1) 
8855

>  <PUBCHEM_CONFORMER_RMSD>  (1) 
0.4

>  <PUBCHEM_CONFORMER_DIVERSEORDER>  (1) 
1
9
13
3
11
2
4
5
10
14
8
12
7
6

>  <PUBCHEM_MMFF94_PARTIAL_CHARGES>  (1) 
4
1 -0.21
2 -0.57
4 0.06
6 0.72

>  <PUBCHEM_EFFECTIVE_ROTOR_COUNT>  (1) 
2

>  <PUBCHEM_PHARMACOPHORE_FEATURES>  (1) 
1
1 5 hydrophobe

>  <PUBCHEM_HEAVY_ATOM_COUNT>  (1) 
6

>  <PUBCHEM_ATOM_DEF_STEREO_COUNT>  (1) 
0

>  <PUBCHEM_ATOM_UDEF_STEREO_COUNT>  (1) 
0

>  <PUBCHEM_BOND_DEF_STEREO_COUNT>  (1) 
0

>  <PUBCHEM_BOND_UDEF_STEREO_COUNT>  (1) 
0

>  <PUBCHEM_ISOTOPIC_ATOM_COUNT>  (1) 
0

>  <PUBCHEM_COMPONENT_COUNT>  (1) 
1

>  <PUBCHEM_CACTVS_TAUTO_COUNT>  (1) 
1

>  <PUBCHEM_CONFORMER_ID>  (1) 
0000229700000001

>  <PUBCHEM_MMFF94_ENERGY>  (1) 
0.8291

>  <PUBCHEM_FEATURE_SELFOVERLAP>  (1) 
5.074

>  <PUBCHEM_SHAPE_FINGERPRINT>  (1) 
12932741 1 17603586369757919043
139733 1 9222933877487408610
20096714 4 18339361980048513577
21040471 1 18194401319038766056
23552449 11 18337379500591144162
29004967 10 18411700946189710986
5460574 1 9295286144635977891

>  <PUBCHEM_SHAPE_MULTIPOLES>  (1) 
119.48
3.76
1.11
0.61
1.13
0.22
0
-1
0.03
-0.47
0
0
-0.03
0

>  <PUBCHEM_SHAPE_SELFOVERLAP>  (1) 
202.576

>  <PUBCHEM_SHAPE_VOLUME>  (1) 
80.4

>  <PUBCHEM_COORDINATE_TYPE>  (1) 
2
5
10

$$$$
