8867
     RDKit          3D

  8  7  0  0  1  0  0  0  0  0999 V2000
   -1.9097    0.8477    1.3322 S   0  0  0  0  0  0  0  0  0  0  0  0
   -2.6441   -1.1242   -0.8030 S   0  0  0  0  0  0  0  0  0  0  0  0
   -0.1302   -0.4690   -0.1480 O   0  0  0  0  0  0  0  0  0  0  0  0
    0.8458    0.5470    0.0645 C   0  0  0  0  0  0  0  0  0  0  0  0
    2.2310   -0.0108   -0.2695 C   0  0  0  0  0  0  0  0  0  0  0  0
    0.5077    1.7450   -0.8126 C   0  0  0  0  0  0  0  0  0  0  0  0
    2.5771   -1.2352    0.5675 C   0  0  0  0  0  0  0  0  0  0  0  0
   -1.4776   -0.3005    0.0689 C   0  0  0  0  0  0  0  0  0  0  0  0
  1  8  1  0
  2  8  2  0
  3  4  1  0
  3  8  1  0
  4  5  1  0
  4  6  1  0
  5  7  1  0
M  END
>  <PUBCHEM_COMPOUND_CID>  (1) 
8867

>  <PUBCHEM_CONFORMER_RMSD>  (1) 
0.6

>  <PUBCHEM_CONFORMER_DIVERSEORDER>  (1) 
1
13
4
16
15
17
3
12
20
8
9
14
6
5
11
19
2
18
7
10

>  <PUBCHEM_MMFF94_PARTIAL_CHARGES>  (1) 
6
1 -0.32
18 0.18
2 -0.38
3 -0.43
4 0.28
8 0.67

>  <PUBCHEM_EFFECTIVE_ROTOR_COUNT>  (1) 
3

>  <PUBCHEM_PHARMACOPHORE_FEATURES>  (1) 
3
1 2 acceptor
1 7 hydrophobe
3 1 2 8 anion

>  <PUBCHEM_HEAVY_ATOM_COUNT>  (1) 
8

>  <PUBCHEM_ATOM_DEF_STEREO_COUNT>  (1) 
0

>  <PUBCHEM_ATOM_UDEF_STEREO_COUNT>  (1) 
1

>  <PUBCHEM_BOND_DEF_STEREO_COUNT>  (1) 
0

>  <PUBCHEM_BOND_UDEF_STEREO_COUNT>  (1) 
0

>  <PUBCHEM_ISOTOPIC_ATOM_COUNT>  (1) 
0

>  <PUBCHEM_COMPONENT_COUNT>  (1) 
1

>  <PUBCHEM_CACTVS_TAUTO_COUNT>  (1) 
1

>  <PUBCHEM_CONFORMER_ID>  (1) 
000022A300000001

>  <PUBCHEM_MMFF94_ENERGY>  (1) 
16.9114

>  <PUBCHEM_FEATURE_SELFOVERLAP>  (1) 
15.223

>  <PUBCHEM_SHAPE_FINGERPRINT>  (1) 
10857977 72 15841270462514728367
12932741 1 16226048950274413229
12932764 1 18412271618351925160
20653085 51 17676758834501006437
20653091 64 18338241586405711176
20711985 344 17025135338241811348
21040471 1 17415589548063595041
23211744 25 16470363998868289149
23211744 41 14620797089194769375
23552333 60 18197496440102556289
23552423 10 18265898149456792279
29004967 10 17676216774957341168
5084963 1 18410853304307773815

>  <PUBCHEM_SHAPE_MULTIPOLES>  (1) 
166.47
4.01
1.56
1.11
0.26
0.23
0.15
-1.7
0.29
-0.11
-0.17
-0.38
0.26
-1.02

>  <PUBCHEM_SHAPE_SELFOVERLAP>  (1) 
283.04

>  <PUBCHEM_SHAPE_VOLUME>  (1) 
113.7

>  <PUBCHEM_COORDINATE_TYPE>  (1) 
2
5
10

$$$$
