8883
     RDKit          3D

 10  9  0  0  0  0  0  0  0  0999 V2000
   -2.5505    0.0305   -1.3518 O   0  0  0  0  0  0  0  0  0  0  0  0
    2.5499   -0.2192   -1.3345 O   0  0  0  0  0  0  0  0  0  0  0  0
   -2.0737    0.0053   -0.0058 C   0  0  0  0  0  0  0  0  0  0  0  0
    2.0736    0.0026   -0.0064 C   0  0  0  0  0  0  0  0  0  0  0  0
   -2.6030   -1.2728    0.6420 C   0  0  0  0  0  0  0  0  0  0  0  0
   -2.6095    1.2373    0.7229 C   0  0  0  0  0  0  0  0  0  0  0  0
    2.6119    1.3459    0.4854 C   0  0  0  0  0  0  0  0  0  0  0  0
    2.6012   -1.1368    0.8636 C   0  0  0  0  0  0  0  0  0  0  0  0
   -0.6007    0.0039   -0.0077 C   0  0  0  0  0  0  0  0  0  0  0  0
    0.6007    0.0033   -0.0078 C   0  0  0  0  0  0  0  0  0  0  0  0
  1  3  1  0
  2  4  1  0
  3  5  1  0
  3  6  1  0
  3  9  1  0
  4  7  1  0
  4  8  1  0
  4 10  1  0
  9 10  3  0
M  END
>  <PUBCHEM_COMPOUND_CID>  (1) 
8883

>  <PUBCHEM_CONFORMER_RMSD>  (1) 
0.4

>  <PUBCHEM_CONFORMER_DIVERSEORDER>  (1) 
1

>  <PUBCHEM_MMFF94_PARTIAL_CHARGES>  (1) 
8
1 -0.68
10 -0.2
2 -0.68
23 0.4
24 0.4
3 0.48
4 0.48
9 -0.2

>  <PUBCHEM_EFFECTIVE_ROTOR_COUNT>  (1) 
0

>  <PUBCHEM_PHARMACOPHORE_FEATURES>  (1) 
6
1 1 acceptor
1 1 donor
1 2 acceptor
1 2 donor
3 3 5 6 hydrophobe
3 4 7 8 hydrophobe

>  <PUBCHEM_HEAVY_ATOM_COUNT>  (1) 
10

>  <PUBCHEM_ATOM_DEF_STEREO_COUNT>  (1) 
0

>  <PUBCHEM_ATOM_UDEF_STEREO_COUNT>  (1) 
0

>  <PUBCHEM_BOND_DEF_STEREO_COUNT>  (1) 
0

>  <PUBCHEM_BOND_UDEF_STEREO_COUNT>  (1) 
0

>  <PUBCHEM_ISOTOPIC_ATOM_COUNT>  (1) 
0

>  <PUBCHEM_COMPONENT_COUNT>  (1) 
1

>  <PUBCHEM_CACTVS_TAUTO_COUNT>  (1) 
1

>  <PUBCHEM_CONFORMER_ID>  (1) 
000022B300000001

>  <PUBCHEM_MMFF94_ENERGY>  (1) 
13.3658

>  <PUBCHEM_FEATURE_SELFOVERLAP>  (1) 
30.446

>  <PUBCHEM_SHAPE_FINGERPRINT>  (1) 
12932741 1 18409449210526040118
12932764 1 18040157305262079154
14325111 11 18408603673209967082
14390081 3 18342175583033108433
170605 34 18200030789088736344
19973954 147 18272939331516169417
20279233 1 17967803968381933499
20653085 51 17631744759566404257
230 275 18339918324759114688
3248919 1 18202278100044113307
369184 2 18334855017767575649
5084963 1 17676205775218990011
8030462 33 18409166605978211895

>  <PUBCHEM_SHAPE_MULTIPOLES>  (1) 
194.06
5.45
1.26
1.07
0
0.03
-0.26
0.01
0.26
0
0.41
0
-0.02
-0.05

>  <PUBCHEM_SHAPE_SELFOVERLAP>  (1) 
367.356

>  <PUBCHEM_SHAPE_VOLUME>  (1) 
120.1

>  <PUBCHEM_COORDINATE_TYPE>  (1) 
2
5
10

$$$$
