8890
     RDKit          3D

 19 18  0  0  0  0  0  0  0  0999 V2000
    3.9951   -1.6773   -1.4642 O   0  0  0  0  0  0  0  0  0  0  0  0
    0.0130   -1.8025    0.5442 O   0  0  0  0  0  0  0  0  0  0  0  0
    2.8671   -2.1002    0.5211 N   0  0  0  0  0  0  0  0  0  0  0  0
    0.2924    2.6873   -0.9227 C   0  0  0  0  0  0  0  0  0  0  0  0
   -0.7920    2.1847    0.0321 C   0  0  0  0  0  0  0  0  0  0  0  0
    1.4199    3.4491   -0.2190 C   0  0  0  0  0  0  0  0  0  0  0  0
   -1.9008    1.4504   -0.7247 C   0  0  0  0  0  0  0  0  0  0  0  0
    2.2530    2.6356    0.7779 C   0  0  0  0  0  0  0  0  0  0  0  0
   -3.0035    0.9797    0.2253 C   0  0  0  0  0  0  0  0  0  0  0  0
    3.0029    1.4693    0.1303 C   0  0  0  0  0  0  0  0  0  0  0  0
   -4.0962    0.2152   -0.5254 C   0  0  0  0  0  0  0  0  0  0  0  0
    3.8302    0.6488    1.1271 C   0  0  0  0  0  0  0  0  0  0  0  0
   -5.2142   -0.2254    0.4221 C   0  0  0  0  0  0  0  0  0  0  0  0
    4.6595   -0.4742    0.5043 C   0  0  0  0  0  0  0  0  0  0  0  0
   -6.3198   -1.0223   -0.2738 C   0  0  0  0  0  0  0  0  0  0  0  0
   -7.4677   -1.4017    0.6488 C   0  0  0  0  0  0  0  0  0  0  0  0
    3.8181   -1.4727   -0.2651 C   0  0  0  0  0  0  0  0  0  0  0  0
    1.9607   -3.0895   -0.0110 C   0  0  0  0  0  0  0  0  0  0  0  0
    0.6824   -2.4544   -0.5272 C   0  0  0  0  0  0  0  0  0  0  0  0
  1 17  2  0
  2 19  1  0
  3 17  1  0
  3 18  1  0
  4  5  1  0
  4  6  1  0
  5  7  1  0
  6  8  1  0
  7  9  1  0
  8 10  1  0
  9 11  1  0
 10 12  1  0
 11 13  1  0
 12 14  1  0
 13 15  1  0
 14 17  1  0
 15 16  1  0
 18 19  1  0
M  END
>  <PUBCHEM_COMPOUND_CID>  (1) 
8890

>  <PUBCHEM_CONFORMER_RMSD>  (1) 
1.4

>  <PUBCHEM_CONFORMER_DIVERSEORDER>  (1) 
1
2
16
14
29
34
17
12
10
44
21
9
77
67
84
48
46
30
25
55
11
33
65
86
13
36
7
56
53
61
74
24
15
32
42
37
73
70
57
58
52
81
35
83
80
87
50
63
6
43
88
64
8
68
66
59
20
4
41
5
62
75
19
27
60
49
76
54
51
82
23
38
39
18
45
78
79
71
40
85
28
22
26
69
47
31
3
72

>  <PUBCHEM_MMFF94_PARTIAL_CHARGES>  (1) 
9
1 -0.57
14 0.06
17 0.57
18 0.3
19 0.28
2 -0.68
3 -0.73
47 0.37
52 0.4

>  <PUBCHEM_EFFECTIVE_ROTOR_COUNT>  (1) 
15

>  <PUBCHEM_PHARMACOPHORE_FEATURES>  (1) 
5
1 1 acceptor
1 16 hydrophobe
1 2 acceptor
1 2 donor
1 3 donor

>  <PUBCHEM_HEAVY_ATOM_COUNT>  (1) 
19

>  <PUBCHEM_ATOM_DEF_STEREO_COUNT>  (1) 
0

>  <PUBCHEM_ATOM_UDEF_STEREO_COUNT>  (1) 
0

>  <PUBCHEM_BOND_DEF_STEREO_COUNT>  (1) 
0

>  <PUBCHEM_BOND_UDEF_STEREO_COUNT>  (1) 
0

>  <PUBCHEM_ISOTOPIC_ATOM_COUNT>  (1) 
0

>  <PUBCHEM_COMPONENT_COUNT>  (1) 
1

>  <PUBCHEM_CACTVS_TAUTO_COUNT>  (1) 
2

>  <PUBCHEM_CONFORMER_ID>  (1) 
000022BA00000001

>  <PUBCHEM_MMFF94_ENERGY>  (1) 
1.0254

>  <PUBCHEM_FEATURE_SELFOVERLAP>  (1) 
25.374

>  <PUBCHEM_SHAPE_FINGERPRINT>  (1) 
10316853 100 18334298712208234835
10838868 158 16740875668220325235
114674 6 18408318908488832992
12596599 1 17485936233373570736
12596602 18 17274823562579101097
13402501 40 18335417967552230938
13533116 47 18271528705980761049
14251705 54 18122900937374045012
14251740 57 18202008711142329823
15003188 105 18041836212706063834
15110567 62 18408886243698925643
1768 124 18268991059071646727
20397935 70 18342741853444551413
20645477 70 18188204398680782161
21197605 99 18196090164873633787
21585482 310 17895203242250961947
338550 245 18264767851730370103
373842 8 18048598420119202291
5283384 97 18341316882301390119
5309563 4 18410291372077388109

>  <PUBCHEM_SHAPE_MULTIPOLES>  (1) 
374.29
13.9
4.18
0.98
28.87
0.66
0.07
-7.99
-2.4
-3.94
0.47
-0.43
0.02
1.06

>  <PUBCHEM_SHAPE_SELFOVERLAP>  (1) 
683.426

>  <PUBCHEM_SHAPE_VOLUME>  (1) 
237.4

>  <PUBCHEM_COORDINATE_TYPE>  (1) 
2
5
10

$$$$
