8926
     RDKit          3D

 17 16  0  0  0  0  0  0  0  0999 V2000
  -10.1281   -0.4540    0.0796 N   0  0  0  0  0  0  0  0  0  0  0  0
   -0.0405   -0.3716   -0.0292 C   0  0  0  0  0  0  0  0  0  0  0  0
    1.2590    0.4394   -0.0318 C   0  0  0  0  0  0  0  0  0  0  0  0
   -1.3014    0.4944    0.0004 C   0  0  0  0  0  0  0  0  0  0  0  0
    2.5538   -0.3711   -0.1458 C   0  0  0  0  0  0  0  0  0  0  0  0
   -2.5657   -0.3677   -0.0195 C   0  0  0  0  0  0  0  0  0  0  0  0
    3.8193    0.4878   -0.0861 C   0  0  0  0  0  0  0  0  0  0  0  0
   -3.8289    0.4966   -0.0224 C   0  0  0  0  0  0  0  0  0  0  0  0
    5.0782   -0.3823   -0.1165 C   0  0  0  0  0  0  0  0  0  0  0  0
   -5.0910   -0.3686   -0.0097 C   0  0  0  0  0  0  0  0  0  0  0  0
    6.3779    0.4239   -0.0343 C   0  0  0  0  0  0  0  0  0  0  0  0
   -6.3896    0.4446   -0.0002 C   0  0  0  0  0  0  0  0  0  0  0  0
    7.6697   -0.3986    0.0235 C   0  0  0  0  0  0  0  0  0  0  0  0
   -7.6505   -0.4251    0.0466 C   0  0  0  0  0  0  0  0  0  0  0  0
    8.9630    0.4080    0.1618 C   0  0  0  0  0  0  0  0  0  0  0  0
   -8.9431    0.3946    0.0511 C   0  0  0  0  0  0  0  0  0  0  0  0
   10.2179   -0.4503    0.1324 C   0  0  0  0  0  0  0  0  0  0  0  0
  1 16  1  0
  2  3  1  0
  2  4  1  0
  3  5  1  0
  4  6  1  0
  5  7  1  0
  6  8  1  0
  7  9  1  0
  8 10  1  0
  9 11  1  0
 10 12  1  0
 11 13  1  0
 12 14  1  0
 13 15  1  0
 14 16  1  0
 15 17  1  0
M  END
>  <PUBCHEM_COMPOUND_CID>  (1) 
8926

>  <PUBCHEM_CONFORMER_RMSD>  (1) 
1.4

>  <PUBCHEM_CONFORMER_DIVERSEORDER>  (1) 
1
18
35
3
41
12
37
2
43
14
33
24
40
46
19
36
25
34
28
49
45
29
39
32
48
20
31
13
4
9
15
51
6
38
8
17
22
30
16
50
47
21
11
42
26
10
23
27
5
44
52
7

>  <PUBCHEM_MMFF94_PARTIAL_CHARGES>  (1) 
4
1 -0.99
16 0.27
51 0.36
52 0.36

>  <PUBCHEM_EFFECTIVE_ROTOR_COUNT>  (1) 
14

>  <PUBCHEM_PHARMACOPHORE_FEATURES>  (1) 
3
1 1 cation
1 1 donor
1 17 hydrophobe

>  <PUBCHEM_HEAVY_ATOM_COUNT>  (1) 
17

>  <PUBCHEM_ATOM_DEF_STEREO_COUNT>  (1) 
0

>  <PUBCHEM_ATOM_UDEF_STEREO_COUNT>  (1) 
0

>  <PUBCHEM_BOND_DEF_STEREO_COUNT>  (1) 
0

>  <PUBCHEM_BOND_UDEF_STEREO_COUNT>  (1) 
0

>  <PUBCHEM_ISOTOPIC_ATOM_COUNT>  (1) 
0

>  <PUBCHEM_COMPONENT_COUNT>  (1) 
1

>  <PUBCHEM_CACTVS_TAUTO_COUNT>  (1) 
1

>  <PUBCHEM_CONFORMER_ID>  (1) 
000022DE00000001

>  <PUBCHEM_MMFF94_ENERGY>  (1) 
-6.3868

>  <PUBCHEM_FEATURE_SELFOVERLAP>  (1) 
15.223

>  <PUBCHEM_SHAPE_FINGERPRINT>  (1) 
14123256 10 18411138030332088957
14251764 46 18410573985151457634
14251920 1 18410855455838495251
15510794 2 18411142432711179206
155225 1 11815889073472974338
232437 2 18408040706636040522
23521765 1 18341895190345685356
23581129 1 18409448085244608518
33684 2 18333449841654050697
67123 10 18410856568229724164
8209 1 18410856563934763372

>  <PUBCHEM_SHAPE_MULTIPOLES>  (1) 
344.87
38.7
0.79
0.62
0.4
0.01
0
-2.56
2.07
0.03
0
0.08
0
0.02

>  <PUBCHEM_SHAPE_SELFOVERLAP>  (1) 
612.505

>  <PUBCHEM_SHAPE_VOLUME>  (1) 
223.5

>  <PUBCHEM_COORDINATE_TYPE>  (1) 
2
5
10

$$$$
