8942
     RDKit          3D

 17 17  0  0  0  0  0  0  0  0999 V2000
    2.4450    1.4539   -1.7983 O   0  0  0  0  0  0  0  0  0  0  0  0
    0.5252    0.0426    2.2480 O   0  0  0  0  0  0  0  0  0  0  0  0
    3.3139   -2.7275   -0.1199 O   0  0  0  0  0  0  0  0  0  0  0  0
    2.7991   -0.6702   -1.0074 N   0  0  0  0  0  0  0  0  0  0  0  0
    1.8397   -1.3754    1.0135 N   0  0  0  0  0  0  0  0  0  0  0  0
    0.9593    0.6475   -0.0597 C   0  0  0  0  0  0  0  0  0  0  0  0
   -0.2842    0.1553   -0.8216 C   0  0  0  0  0  0  0  0  0  0  0  0
   -1.5424    0.2467    0.0416 C   0  0  0  0  0  0  0  0  0  0  0  0
    0.7542    2.1121    0.3538 C   0  0  0  0  0  0  0  0  0  0  0  0
   -2.7816   -0.2121   -0.7305 C   0  0  0  0  0  0  0  0  0  0  0  0
    2.1397    0.5499   -1.0210 C   0  0  0  0  0  0  0  0  0  0  0  0
    1.0916   -0.2206    1.1875 C   0  0  0  0  0  0  0  0  0  0  0  0
   -4.0451   -0.0836    0.1233 C   0  0  0  0  0  0  0  0  0  0  0  0
    1.9970    2.6676    1.0120 C   0  0  0  0  0  0  0  0  0  0  0  0
   -5.3188   -0.5078   -0.6111 C   0  0  0  0  0  0  0  0  0  0  0  0
    2.6816   -1.6721   -0.0516 C   0  0  0  0  0  0  0  0  0  0  0  0
   -6.5741   -0.4062    0.2415 C   0  0  0  0  0  0  0  0  0  0  0  0
  1 11  2  0
  2 12  2  0
  3 16  2  0
  4 11  1  0
  4 16  1  0
  5 12  1  0
  5 16  1  0
  6  7  1  0
  6  9  1  0
  6 11  1  0
  6 12  1  0
  7  8  1  0
  8 10  1  0
  9 14  1  0
 10 13  1  0
 13 15  1  0
 15 17  1  0
M  END
>  <PUBCHEM_COMPOUND_CID>  (1) 
8942

>  <PUBCHEM_CONFORMER_RMSD>  (1) 
0.8

>  <PUBCHEM_CONFORMER_DIVERSEORDER>  (1) 
2
22
34
28
12
19
30
20
39
1
16
31
11
23
37
5
33
3
15
26
21
17
36
10
18
27
24
35
9
6
25
38
29
8
14
13
32
7
4

>  <PUBCHEM_MMFF94_PARTIAL_CHARGES>  (1) 
11
1 -0.57
11 0.57
12 0.57
16 0.69
2 -0.57
3 -0.57
31 0.37
32 0.37
4 -0.49
5 -0.49
6 0.12

>  <PUBCHEM_EFFECTIVE_ROTOR_COUNT>  (1) 
6.6

>  <PUBCHEM_PHARMACOPHORE_FEATURES>  (1) 
9
1 1 acceptor
1 14 hydrophobe
1 17 hydrophobe
1 2 acceptor
1 3 acceptor
1 4 donor
1 5 donor
5 7 8 10 13 15 hydrophobe
6 4 5 6 11 12 16 rings

>  <PUBCHEM_HEAVY_ATOM_COUNT>  (1) 
17

>  <PUBCHEM_ATOM_DEF_STEREO_COUNT>  (1) 
0

>  <PUBCHEM_ATOM_UDEF_STEREO_COUNT>  (1) 
0

>  <PUBCHEM_BOND_DEF_STEREO_COUNT>  (1) 
0

>  <PUBCHEM_BOND_UDEF_STEREO_COUNT>  (1) 
0

>  <PUBCHEM_ISOTOPIC_ATOM_COUNT>  (1) 
0

>  <PUBCHEM_COMPONENT_COUNT>  (1) 
1

>  <PUBCHEM_CACTVS_TAUTO_COUNT>  (1) 
5

>  <PUBCHEM_CONFORMER_ID>  (1) 
000022EE00000002

>  <PUBCHEM_MMFF94_ENERGY>  (1) 
33.2833

>  <PUBCHEM_FEATURE_SELFOVERLAP>  (1) 
45.712

>  <PUBCHEM_SHAPE_FINGERPRINT>  (1) 
12423570 1 13886889485073022616
12616999 72 14996280297744062811
13533116 47 18409731768837121635
13955234 65 18341047514426030123
14252887 29 18261387884372715105
16945 1 18270412697198692152
18186145 218 17749380456708345301
20231682 184 11602828977414804203
20369508 70 18343300370769995413
20388580 30 18261960635119895726
20645477 70 18113337509810897583
20708731 107 18333731320962665038
2255824 54 18130504235977889749
23419403 2 17754976940808218712
23590187 302 18040716948465300447
312423 11 18409455761148115313
465052 167 18343026592871051799
4990 188 17530967973371705975
522135 26 18409730673224497495
5281201 14 17749388144499384645
54040823 5 18343869922125132430
7364860 26 18341887532588003112
94968 8 18113335284738185275

>  <PUBCHEM_SHAPE_MULTIPOLES>  (1) 
322.28
9.33
2.14
1.4
22.96
0.23
-0.22
-3.19
0.83
-3.47
-0.37
-0.96
0.24
-0.15

>  <PUBCHEM_SHAPE_SELFOVERLAP>  (1) 
644.238

>  <PUBCHEM_SHAPE_VOLUME>  (1) 
187.7

>  <PUBCHEM_COORDINATE_TYPE>  (1) 
2
5
10

$$$$
