897
     RDKit          3D

 15 15  0  0  1  0  0  0  0  0999 V2000
   -0.9547    1.2572    0.0541 O   0  0  0  0  0  0  0  0  0  0  0  0
    0.6061   -2.5794   -0.3898 O   0  0  0  0  0  0  0  0  0  0  0  0
   -2.1868   -2.2163    0.1635 O   0  0  0  0  0  0  0  0  0  0  0  0
   -3.5024    1.7602    0.8959 O   0  0  0  0  0  0  0  0  0  0  0  0
    3.5685    0.8001   -0.4424 O   0  0  0  0  0  0  0  0  0  0  0  0
    1.6410   -0.1251    0.4762 N   0  0  0  0  0  0  0  0  0  0  0  0
   -0.3928    1.3172   -2.2981 N   0  0  0  0  0  0  0  0  0  0  0  0
    0.8542   -0.1847   -0.7421 C   0  0  0  0  0  0  0  0  0  0  0  0
   -0.0998   -1.3847   -0.7178 C   0  0  0  0  0  0  0  0  0  0  0  0
   -1.2296   -1.1666    0.2900 C   0  0  0  0  0  0  0  0  0  0  0  0
   -1.9075    0.1900    0.0606 C   0  0  0  0  0  0  0  0  0  0  0  0
    0.0885    1.1362   -0.9263 C   0  0  0  0  0  0  0  0  0  0  0  0
   -2.9227    0.4958    1.1587 C   0  0  0  0  0  0  0  0  0  0  0  0
    2.9317    0.3642    0.5132 C   0  0  0  0  0  0  0  0  0  0  0  0
    3.5063    0.3359    1.9041 C   0  0  0  0  0  0  0  0  0  0  0  0
  1 11  1  0
  1 12  1  0
  2  9  1  0
  3 10  1  0
  4 13  1  0
  5 14  2  0
  6  8  1  0
  6 14  1  0
  7 12  1  0
  8  9  1  0
  8 12  1  0
  9 10  1  0
 10 11  1  0
 11 13  1  0
 14 15  1  0
M  END
>  <PUBCHEM_COMPOUND_CID>  (1) 
897

>  <PUBCHEM_CONFORMER_RMSD>  (1) 
0.6

>  <PUBCHEM_CONFORMER_DIVERSEORDER>  (1) 
1
73
229
181
150
258
38
245
266
164
81
139
191
173
232
108
223
179
63
202
97
203
219
200
269
183
162
47
145
268
222
265
195
4
106
244
155
111
215
160
255
110
151
126
130
213
69
254
136
99
100
58
267
248
50
143
237
249
168
91
42
177
169
14
209
261
260
208
253
96
70
234
114
115
165
13
263
205
194
119
190
71
157
240
60
188
225
148
214
226
125
199
62
26
128
207
262
72
224
264
98
105
257
187
163
19
212
211
90
104
5
227
159
27
197
186
192
251
36
121
32
204
243
109
132
238
185
239
230
113
20
134
247
75
103
124
180
171
178
246
131
65
189
40
252
43
118
129
78
83
64
218
95
161
74
172
56
55
7
158
31
228
35
206
220
94
156
2
137
80
236
242
68
45
210
152
259
34
89
101
138
241
51
24
142
250
117
144
77
149
79
30
23
16
154
92
87
133
10
112
140
86
122
198
107
231
233
18
166
217
82
235
196
61
170
184
84
21
167
59
85
116
175
216
44
25
41
29
146
147
52
17
176
193
127
88
270
12
174
123
28
15
201
153
53
256
120
37
93
135
48
182
102
66
11
6
67
221
39
49
76
54
33
8
57
9
46
3
22
141

>  <PUBCHEM_MMFF94_PARTIAL_CHARGES>  (1) 
21
1 -0.56
10 0.28
11 0.28
12 0.55
13 0.28
14 0.57
15 0.06
2 -0.68
23 0.37
24 0.36
25 0.36
26 0.4
27 0.4
28 0.4
3 -0.68
4 -0.68
5 -0.57
6 -0.73
7 -0.99
8 0.3
9 0.28

>  <PUBCHEM_EFFECTIVE_ROTOR_COUNT>  (1) 
4.2

>  <PUBCHEM_PHARMACOPHORE_FEATURES>  (1) 
12
1 1 acceptor
1 2 acceptor
1 2 donor
1 3 acceptor
1 3 donor
1 4 acceptor
1 4 donor
1 5 acceptor
1 6 donor
1 7 cation
1 7 donor
6 1 8 9 10 11 12 rings

>  <PUBCHEM_HEAVY_ATOM_COUNT>  (1) 
15

>  <PUBCHEM_ATOM_DEF_STEREO_COUNT>  (1) 
0

>  <PUBCHEM_ATOM_UDEF_STEREO_COUNT>  (1) 
5

>  <PUBCHEM_BOND_DEF_STEREO_COUNT>  (1) 
0

>  <PUBCHEM_BOND_UDEF_STEREO_COUNT>  (1) 
0

>  <PUBCHEM_ISOTOPIC_ATOM_COUNT>  (1) 
0

>  <PUBCHEM_COMPONENT_COUNT>  (1) 
1

>  <PUBCHEM_CACTVS_TAUTO_COUNT>  (1) 
2

>  <PUBCHEM_CONFORMER_ID>  (1) 
0000038100000001

>  <PUBCHEM_MMFF94_ENERGY>  (1) 
29.6597

>  <PUBCHEM_FEATURE_SELFOVERLAP>  (1) 
60.914

>  <PUBCHEM_SHAPE_FINGERPRINT>  (1) 
11132069 177 18334849524425308744
11680611 10 17607271988632323699
12251169 10 18334858324660531960
12382932 28 18409176488993456785
12423570 1 9865762272461103213
12932764 1 17822281406029419592
13024252 1 15358516584883433542
13296909 8 18201153364337197579
13571099 52 17703789197676288809
13764800 53 17988643025295825936
13839132 238 17988657275870706551
14817 1 14297551790399292326
16945 1 18408325466819497685
19930374 2 17895747379614357341
20511035 2 18123500235662274183
20653085 51 15985099738859863968
22112679 90 18042983144640110173
22959321 45 18187655708107707366
23211744 25 11095887042600700223
23382010 3 12822996626019011832
23388829 49 18121217850922224551
23419403 2 17613711518703065943
27216 239 16841602916208515440
2748010 2 17827927221906792997
81228 2 18051955198584000190
90316 7 17967800644209589468

>  <PUBCHEM_SHAPE_MULTIPOLES>  (1) 
269.38
5.13
1.99
1.5
2.37
1.14
0.26
-1.97
-3.06
-1.2
0.24
0.39
-0.63
-0.16

>  <PUBCHEM_SHAPE_SELFOVERLAP>  (1) 
535.267

>  <PUBCHEM_SHAPE_VOLUME>  (1) 
155.8

>  <PUBCHEM_COORDINATE_TYPE>  (1) 
2
5
10

$$$$
