8974
     RDKit          3D

 20 22  0  0  1  0  0  0  0  0999 V2000
   -3.8160    2.7940   -0.6177 Cl  0  0  0  0  0  0  0  0  0  0  0  0
    2.2199   -0.3968   -0.9847 O   0  0  0  0  0  0  0  0  0  0  0  0
    1.2017    2.1493    1.3392 O   0  0  0  0  0  0  0  0  0  0  0  0
    3.3573    2.3491   -0.3036 O   0  0  0  0  0  0  0  0  0  0  0  0
    4.2240   -2.3173   -0.5870 O   0  0  0  0  0  0  0  0  0  0  0  0
    0.0117   -0.4172   -0.1167 N   0  0  0  0  0  0  0  0  0  0  0  0
   -1.2295   -2.2179    0.3246 N   0  0  0  0  0  0  0  0  0  0  0  0
   -1.7439    1.2405   -0.3847 N   0  0  0  0  0  0  0  0  0  0  0  0
   -3.9534    0.2532   -0.0690 N   0  0  0  0  0  0  0  0  0  0  0  0
   -4.2647   -2.0640    0.4394 N   0  0  0  0  0  0  0  0  0  0  0  0
    1.8290    0.9545    0.9205 C   0  0  0  0  0  0  0  0  0  0  0  0
    1.2013    0.3988   -0.3487 C   0  0  0  0  0  0  0  0  0  0  0  0
    3.2654    1.1603    0.4814 C   0  0  0  0  0  0  0  0  0  0  0  0
    3.5051   -0.0453   -0.4219 C   0  0  0  0  0  0  0  0  0  0  0  0
    4.0459   -1.2528    0.3310 C   0  0  0  0  0  0  0  0  0  0  0  0
   -1.2893    0.0017   -0.1433 C   0  0  0  0  0  0  0  0  0  0  0  0
   -0.0057   -1.7582    0.1680 C   0  0  0  0  0  0  0  0  0  0  0  0
   -2.0418   -1.1286    0.1329 C   0  0  0  0  0  0  0  0  0  0  0  0
   -3.4238   -0.9714    0.1661 C   0  0  0  0  0  0  0  0  0  0  0  0
   -3.0932    1.2681   -0.3260 C   0  0  0  0  0  0  0  0  0  0  0  0
  1 20  1  0
  2 12  1  0
  2 14  1  0
  3 11  1  0
  4 13  1  0
  5 15  1  0
  6 12  1  0
  6 16  1  0
  6 17  1  0
  7 17  2  0
  7 18  1  0
  8 16  1  0
  8 20  2  0
  9 19  2  0
  9 20  1  0
 10 19  1  0
 11 12  1  0
 11 13  1  0
 13 14  1  0
 14 15  1  0
 16 18  2  0
 18 19  1  0
M  END
>  <PUBCHEM_COMPOUND_CID>  (1) 
8974

>  <PUBCHEM_CONFORMER_RMSD>  (1) 
0.6

>  <PUBCHEM_CONFORMER_DIVERSEORDER>  (1) 
3
6
15
11
2
13
7
4
9
8
12
1
10
16
5
14

>  <PUBCHEM_MMFF94_PARTIAL_CHARGES>  (1) 
26
1 -0.18
10 -0.9
11 0.28
12 0.54
13 0.28
14 0.28
15 0.28
16 0.11
17 0.04
18 0.23
19 0.41
2 -0.56
20 0.8
27 0.4
28 0.4
29 0.15
3 -0.68
30 0.4
31 0.4
32 0.4
4 -0.68
5 -0.68
6 0.05
7 -0.57
8 -0.57
9 -0.62

>  <PUBCHEM_EFFECTIVE_ROTOR_COUNT>  (1) 
3

>  <PUBCHEM_PHARMACOPHORE_FEATURES>  (1) 
15
1 10 cation
1 10 donor
1 2 acceptor
1 3 acceptor
1 3 donor
1 4 acceptor
1 4 donor
1 5 acceptor
1 5 donor
3 6 7 17 cation
3 6 8 16 cation
3 8 9 20 cation
5 2 11 12 13 14 rings
5 6 7 16 17 18 rings
6 8 9 16 18 19 20 rings

>  <PUBCHEM_HEAVY_ATOM_COUNT>  (1) 
20

>  <PUBCHEM_ATOM_DEF_STEREO_COUNT>  (1) 
4

>  <PUBCHEM_ATOM_UDEF_STEREO_COUNT>  (1) 
0

>  <PUBCHEM_BOND_DEF_STEREO_COUNT>  (1) 
0

>  <PUBCHEM_BOND_UDEF_STEREO_COUNT>  (1) 
0

>  <PUBCHEM_ISOTOPIC_ATOM_COUNT>  (1) 
0

>  <PUBCHEM_COMPONENT_COUNT>  (1) 
1

>  <PUBCHEM_CACTVS_TAUTO_COUNT>  (1) 
3

>  <PUBCHEM_CONFORMER_ID>  (1) 
0000230E00000003

>  <PUBCHEM_MMFF94_ENERGY>  (1) 
45.0576

>  <PUBCHEM_FEATURE_SELFOVERLAP>  (1) 
76.743

>  <PUBCHEM_SHAPE_FINGERPRINT>  (1) 
10498660 4 18260540147943930253
10608611 8 18412260674648764737
10646746 165 18409164398359902941
1100329 8 16539330212743097744
11405975 8 18411700946052561065
12403259 226 18340764935785096849
12403259 415 18412545405300324113
12403260 363 18410845564761057687
12507560 40 18411976988248940008
13134695 92 17417799605280171056
13140716 1 18341333301249556792
13464514 151 17981604871225978093
13675066 3 18272642437959962594
14866123 147 16830665648745648290
15196674 1 18410011039498271877
15219456 202 18343018925720938076
15442244 35 18409729534884187984
17492 89 18409167739950681722
17804303 29 18409452470506749998
18186145 218 18272661125003938712
19049666 15 18413105086909993592
19591789 44 18410011035446560411
200 152 17489581264769779903
20510252 161 18339081592157549481
20645477 70 17917722322445110374
21065198 57 18410011018039266268
21065199 12 18411134770647161728
21279426 13 18050849918709534086
21524375 3 18336824174510725719
22182937 141 18342463587088427769
23402539 116 18271515399602002108
23559900 14 18341891841030771780
3004659 81 18043257838998447886
335352 9 18193838145725927340
350125 39 18336552633777409915
4214541 1 18408604742714923940
495365 180 17560503071917856928
5104073 3 18410575093263602897
633830 44 18336256873380809439
69090 78 18201435938841815119
7364860 26 18122903127638872791
77779 3 18408605868086013252
81228 2 18044368568383780027
9709674 26 18337394936804404162

>  <PUBCHEM_SHAPE_MULTIPOLES>  (1) 
365.08
8.56
2.77
0.84
0.42
0.47
0.08
-0.1
-0.64
-0.97
0.08
0.33
0.21
1.12

>  <PUBCHEM_SHAPE_SELFOVERLAP>  (1) 
784.778

>  <PUBCHEM_SHAPE_VOLUME>  (1) 
204.2

>  <PUBCHEM_COORDINATE_TYPE>  (1) 
2
5
10

$$$$
