8979
     RDKit          3D

 40 48  0  0  0  0  0  0  0  0999 V2000
   -0.9720    1.9093    0.2121 N   0  0  0  0  0  0  0  0  0  0  0  0
    1.0616    3.1389   -0.0446 N   0  0  0  0  0  0  0  0  0  0  0  0
   -3.2372    1.0858    0.3849 N   0  0  0  0  0  0  0  0  0  0  0  0
    1.7453    0.8287    0.1173 N   0  0  0  0  0  0  0  0  0  0  0  0
    3.1179   -1.1129    0.4039 N   0  0  0  0  0  0  0  0  0  0  0  0
   -1.8214   -0.7742   -0.2335 N   0  0  0  0  0  0  0  0  0  0  0  0
   -1.0991   -3.0421   -0.4835 N   0  0  0  0  0  0  0  0  0  0  0  0
    0.8189   -1.7434    0.1532 N   0  0  0  0  0  0  0  0  0  0  0  0
   -0.2851    3.0388   -0.1893 C   0  0  0  0  0  0  0  0  0  0  0  0
   -1.2323    3.9156   -0.6581 C   0  0  0  0  0  0  0  0  0  0  0  0
   -2.5078    3.2810   -0.5511 C   0  0  0  0  0  0  0  0  0  0  0  0
   -2.3371    2.0264   -0.0025 C   0  0  0  0  0  0  0  0  0  0  0  0
    1.9590    2.1160    0.1871 C   0  0  0  0  0  0  0  0  0  0  0  0
    3.3526    2.3872    0.5529 C   0  0  0  0  0  0  0  0  0  0  0  0
    3.9503    1.1483    0.7090 C   0  0  0  0  0  0  0  0  0  0  0  0
    2.9223    0.1646    0.4113 C   0  0  0  0  0  0  0  0  0  0  0  0
   -3.8876   -1.2197    0.7180 C   0  0  0  0  0  0  0  0  0  0  0  0
   -1.0131    5.1976   -1.1540 C   0  0  0  0  0  0  0  0  0  0  0  0
   -2.9667   -0.1742    0.2790 C   0  0  0  0  0  0  0  0  0  0  0  0
   -3.7210    3.8566   -0.9183 C   0  0  0  0  0  0  0  0  0  0  0  0
   -3.2511   -2.4234    0.4781 C   0  0  0  0  0  0  0  0  0  0  0  0
    2.4057   -3.2666   -0.4960 C   0  0  0  0  0  0  0  0  0  0  0  0
    1.1749   -3.8427   -0.7564 C   0  0  0  0  0  0  0  0  0  0  0  0
   -1.9708   -2.0628   -0.1043 C   0  0  0  0  0  0  0  0  0  0  0  0
    2.1008   -1.9566    0.0546 C   0  0  0  0  0  0  0  0  0  0  0  0
    0.1737   -2.8603   -0.3574 C   0  0  0  0  0  0  0  0  0  0  0  0
    4.0490    3.5607    0.7507 C   0  0  0  0  0  0  0  0  0  0  0  0
    5.2753    1.0083    1.0624 C   0  0  0  0  0  0  0  0  0  0  0  0
   -2.2341    5.7966   -1.5385 C   0  0  0  0  0  0  0  0  0  0  0  0
   -3.5199    5.1602   -1.4261 C   0  0  0  0  0  0  0  0  0  0  0  0
   -5.1459   -1.1572    1.2773 C   0  0  0  0  0  0  0  0  0  0  0  0
   -3.8315   -3.6362    0.7792 C   0  0  0  0  0  0  0  0  0  0  0  0
    5.3951    3.4476    1.1125 C   0  0  0  0  0  0  0  0  0  0  0  0
    6.0023    2.1840    1.2666 C   0  0  0  0  0  0  0  0  0  0  0  0
    3.5922   -3.9153   -0.7594 C   0  0  0  0  0  0  0  0  0  0  0  0
    1.0575   -5.1050   -1.2968 C   0  0  0  0  0  0  0  0  0  0  0  0
   -5.7594   -2.3733    1.5929 C   0  0  0  0  0  0  0  0  0  0  0  0
   -5.1085   -3.6006    1.3463 C   0  0  0  0  0  0  0  0  0  0  0  0
    3.5008   -5.1984   -1.3068 C   0  0  0  0  0  0  0  0  0  0  0  0
    2.2462   -5.7873   -1.5727 C   0  0  0  0  0  0  0  0  0  0  0  0
  1  9  1  0
  1 12  1  0
  2  9  1  0
  2 13  1  0
  3 12  1  0
  3 19  2  0
  4 13  2  0
  4 16  1  0
  5 16  2  0
  5 25  1  0
  6 19  1  0
  6 24  2  0
  7 24  1  0
  7 26  2  0
  8 25  2  0
  8 26  1  0
  9 10  2  0
 10 11  1  0
 10 18  1  0
 11 12  2  0
 11 20  1  0
 13 14  1  0
 14 15  2  0
 14 27  1  0
 15 16  1  0
 15 28  1  0
 17 19  1  0
 17 21  2  0
 17 31  1  0
 18 29  2  0
 20 30  2  0
 21 24  1  0
 21 32  1  0
 22 23  2  0
 22 25  1  0
 22 35  1  0
 23 26  1  0
 23 36  1  0
 27 33  2  0
 28 34  2  0
 29 30  1  0
 31 37  2  0
 32 38  2  0
 33 34  1  0
 35 39  2  0
 36 40  2  0
 37 38  1  0
 39 40  1  0
M  END
>  <PUBCHEM_COMPOUND_CID>  (1) 
8979

>  <PUBCHEM_CONFORMER_RMSD>  (1) 
0.8

>  <PUBCHEM_CONFORMER_DIVERSEORDER>  (1) 
1
2

>  <PUBCHEM_MMFF94_PARTIAL_CHARGES>  (1) 
56
1 0.03
12 -0.03
13 0.41
14 0.09
15 0.09
16 0.57
17 0.09
18 -0.15
19 0.57
2 -0.53
20 -0.15
21 0.09
22 0.09
23 0.09
24 0.57
25 0.57
26 0.57
27 -0.15
28 -0.15
29 -0.15
3 -0.58
30 -0.15
31 -0.15
32 -0.15
33 -0.15
34 -0.15
35 -0.15
36 -0.15
37 -0.15
38 -0.15
39 -0.15
4 -0.66
40 -0.15
41 0.27
42 0.4
43 0.15
44 0.15
45 0.15
46 0.15
47 0.15
48 0.15
49 0.15
5 -0.66
50 0.15
51 0.15
52 0.15
53 0.15
54 0.15
55 0.15
56 0.15
57 0.15
58 0.15
6 -0.66
7 -0.66
8 -0.66
9 -0.07

>  <PUBCHEM_EFFECTIVE_ROTOR_COUNT>  (1) 
0

>  <PUBCHEM_PHARMACOPHORE_FEATURES>  (1) 
17
1 1 cation
1 1 donor
1 2 donor
3 2 4 13 cation
3 3 6 19 cation
3 4 5 16 cation
3 5 8 25 cation
3 6 7 24 cation
3 7 8 26 cation
5 1 9 10 11 12 rings
5 4 13 14 15 16 rings
5 6 17 19 21 24 rings
5 8 22 23 25 26 rings
6 10 11 18 20 29 30 rings
6 14 15 27 28 33 34 rings
6 17 21 31 32 37 38 rings
6 22 23 35 36 39 40 rings

>  <PUBCHEM_HEAVY_ATOM_COUNT>  (1) 
40

>  <PUBCHEM_ATOM_DEF_STEREO_COUNT>  (1) 
0

>  <PUBCHEM_ATOM_UDEF_STEREO_COUNT>  (1) 
0

>  <PUBCHEM_BOND_DEF_STEREO_COUNT>  (1) 
0

>  <PUBCHEM_BOND_UDEF_STEREO_COUNT>  (1) 
0

>  <PUBCHEM_ISOTOPIC_ATOM_COUNT>  (1) 
0

>  <PUBCHEM_COMPONENT_COUNT>  (1) 
1

>  <PUBCHEM_CACTVS_TAUTO_COUNT>  (1) 
4

>  <PUBCHEM_CONFORMER_ID>  (1) 
0000231300000001

>  <PUBCHEM_MMFF94_ENERGY>  (1) 
151.8585

>  <PUBCHEM_FEATURE_SELFOVERLAP>  (1) 
88.074

>  <PUBCHEM_SHAPE_FINGERPRINT>  (1) 
10290309 65 18341608248603925528
11445158 3 17683523214750495887
11513181 2 18200298923395788582
12202916 173 18116425037145915739
12218070 45 17767119079182982656
12758862 11 17334774181146071794
14068700 686 18410853282727981552
14117953 113 18194965368941639493
14394314 77 17904485456393235729
14415360 78 17616533956409501740
15320467 1 18411135818476743980
15351339 4 16461922390913788539
15439362 3 17980187596712495368
15968369 26 18122046617139917788
20775438 99 18050820274971702053
21033648 29 17628071519020135666
21133410 127 18260548884018862852
21133410 221 17765680587868395722
21796203 349 17538312886865174753
22113638 7 17834393801607848289
229767 44 18053381290871472890
23559900 14 17619896276084283532
25019877 29 17415010332937564862
437795 96 18338232644188972291
4403749 210 18267277968611877672
4461854 278 17980496868221433802
50677037 204 17548962812653142592
5171179 24 18196376922644177319
5776283 40 17832993745591297316
9961470 85 18266741281918987361

>  <PUBCHEM_SHAPE_MULTIPOLES>  (1) 
783.33
11.08
10.84
1.34
1.51
0.17
-0.09
0.42
5.97
-0.37
-6.3
-0.28
-0.16
6.92

>  <PUBCHEM_SHAPE_SELFOVERLAP>  (1) 
1846.023

>  <PUBCHEM_SHAPE_VOLUME>  (1) 
385

>  <PUBCHEM_COORDINATE_TYPE>  (1) 
2
5
10

$$$$
