8989
     RDKit          3D

 30 31  0  0  1  0  0  0  0  0999 V2000
    0.8783   -1.3365   -0.1457 O   0  0  0  0  0  0  0  0  0  0  0  0
    5.4153    1.4542   -1.6000 O   0  0  0  0  0  0  0  0  0  0  0  0
    0.9194   -2.2901    0.9325 C   0  0  0  0  0  0  0  0  0  0  0  0
   -0.5319   -2.4462    1.4104 C   0  0  0  0  0  0  0  0  0  0  0  0
    1.7759   -1.7872    2.1059 C   0  0  0  0  0  0  0  0  0  0  0  0
   -1.5088   -2.4979    0.2340 C   0  0  0  0  0  0  0  0  0  0  0  0
   -4.0024   -2.6714   -0.4088 C   0  0  0  0  0  0  0  0  0  0  0  0
   -2.9494   -2.6869    0.7218 C   0  0  0  0  0  0  0  0  0  0  0  0
    3.1965   -1.4700    1.6605 C   0  0  0  0  0  0  0  0  0  0  0  0
   -4.0095   -1.3263   -1.1662 C   0  0  0  0  0  0  0  0  0  0  0  0
   -4.2914   -0.1143   -0.2710 C   0  0  0  0  0  0  0  0  0  0  0  0
    1.4000   -3.6422    0.3838 C   0  0  0  0  0  0  0  0  0  0  0  0
    3.1743   -0.6831    0.3838 C   0  0  0  0  0  0  0  0  0  0  0  0
   -4.3172    1.2178   -1.0336 C   0  0  0  0  0  0  0  0  0  0  0  0
   -4.5299    2.4937   -0.1858 C   0  0  0  0  0  0  0  0  0  0  0  0
    2.0391   -0.6689   -0.4350 C   0  0  0  0  0  0  0  0  0  0  0  0
   -3.3989    2.6897    0.8456 C   0  0  0  0  0  0  0  0  0  0  0  0
   -3.7386   -3.8543   -1.3479 C   0  0  0  0  0  0  0  0  0  0  0  0
    4.3149    0.0258   -0.0170 C   0  0  0  0  0  0  0  0  0  0  0  0
   -1.9753    2.7429    0.2753 C   0  0  0  0  0  0  0  0  0  0  0  0
    2.0362    0.0736   -1.6193 C   0  0  0  0  0  0  0  0  0  0  0  0
   -5.9039    2.4098    0.4918 C   0  0  0  0  0  0  0  0  0  0  0  0
   -0.8521    2.8814    1.3103 C   0  0  0  0  0  0  0  0  0  0  0  0
    4.3124    0.7585   -1.2043 C   0  0  0  0  0  0  0  0  0  0  0  0
    0.5818    2.8535    0.7481 C   0  0  0  0  0  0  0  0  0  0  0  0
    3.1720    0.7852   -2.0032 C   0  0  0  0  0  0  0  0  0  0  0  0
    5.5559    0.0178    0.8213 C   0  0  0  0  0  0  0  0  0  0  0  0
    0.8244    0.1280   -2.4924 C   0  0  0  0  0  0  0  0  0  0  0  0
    1.6415    2.9377    1.8469 C   0  0  0  0  0  0  0  0  0  0  0  0
    0.7714    4.0058   -0.2416 C   0  0  0  0  0  0  0  0  0  0  0  0
  1  3  1  0
  1 16  1  0
  2 24  1  0
  3  4  1  0
  3  5  1  0
  3 12  1  0
  4  6  1  0
  5  9  1  0
  6  8  1  0
  7  8  1  0
  7 10  1  0
  7 18  1  0
  9 13  1  0
 10 11  1  0
 11 14  1  0
 13 16  2  0
 13 19  1  0
 14 15  1  0
 15 17  1  0
 15 22  1  0
 16 21  1  0
 17 20  1  0
 19 24  2  0
 19 27  1  0
 20 23  1  0
 21 26  2  0
 21 28  1  0
 23 25  1  0
 24 26  1  0
 25 29  1  0
 25 30  1  0
M  END
>  <PUBCHEM_COMPOUND_CID>  (1) 
8989

>  <PUBCHEM_CONFORMER_RMSD>  (1) 
1.6

>  <PUBCHEM_CONFORMER_DIVERSEORDER>  (1) 
7
19
46
64
82
8
94
74
13
84
66
57
93
18
69
36
51
17
1
89
35
80
88
28
86
12
14
73
75
87
49
55
10
20
41
43
61
29
50
56
52
15
95
71
5
6
34
9
77
60
11
68
4
42
24
90
53
67
85
48
25
26
63
16
30
47
62
21
65
92
83
33
2
78
91
27
54
76
79
40
44
72
81
59
70
3
38
45
32
23
22
37
31
39
58

>  <PUBCHEM_MMFF94_PARTIAL_CHARGES>  (1) 
14
1 -0.36
13 -0.14
16 0.08
19 -0.14
2 -0.53
21 -0.14
24 0.08
26 -0.15
27 0.14
28 0.14
3 0.28
65 0.15
78 0.45
9 0.14

>  <PUBCHEM_EFFECTIVE_ROTOR_COUNT>  (1) 
12.8

>  <PUBCHEM_PHARMACOPHORE_FEATURES>  (1) 
7
1 1 acceptor
1 18 hydrophobe
1 2 donor
1 22 hydrophobe
3 25 29 30 hydrophobe
6 1 3 5 9 13 16 rings
6 13 16 19 21 24 26 rings

>  <PUBCHEM_HEAVY_ATOM_COUNT>  (1) 
30

>  <PUBCHEM_ATOM_DEF_STEREO_COUNT>  (1) 
1

>  <PUBCHEM_ATOM_UDEF_STEREO_COUNT>  (1) 
2

>  <PUBCHEM_BOND_DEF_STEREO_COUNT>  (1) 
0

>  <PUBCHEM_BOND_UDEF_STEREO_COUNT>  (1) 
0

>  <PUBCHEM_ISOTOPIC_ATOM_COUNT>  (1) 
0

>  <PUBCHEM_COMPONENT_COUNT>  (1) 
1

>  <PUBCHEM_CACTVS_TAUTO_COUNT>  (1) 
9

>  <PUBCHEM_CONFORMER_ID>  (1) 
0000231D00000007

>  <PUBCHEM_MMFF94_ENERGY>  (1) 
66.6358

>  <PUBCHEM_FEATURE_SELFOVERLAP>  (1) 
35.549

>  <PUBCHEM_SHAPE_FINGERPRINT>  (1) 
10815517 723 17903343819763014098
11399939 17 15825530545405053905
12107698 1 18200307865939639607
12156800 1 18265593520480513152
12788726 201 18337681934897807782
131258 38 18119219845901937738
13617811 41 18262231120025122589
14466204 15 18410568522301528794
14931854 50 18410288095639522429
15297060 5 18201158745694051043
15420108 30 17254546103173521506
161222 10 18055100695008378437
17138139 8 18409448128452984828
17818456 19 18267011756993888234
19319366 153 18114464436446955075
20511986 3 18113611253609267525
20642791 35 18268704073847087083
20715895 44 17322943453168236973
20764821 26 18336829813692334081
21033650 10 18265075650393372318
21860390 5 17694781126912321758
24941158 1 16271071778152360192
3052486 1 18408878555728649776
392239 28 18411411847751688288
463206 1 18336828602364045409
469060 322 17825419442453651521
5171179 24 18057321910206669361
6700243 42 17843982539651571583

>  <PUBCHEM_SHAPE_MULTIPOLES>  (1) 
605.65
10.95
5.41
1.94
3.13
0.26
0.42
2.65
2.22
5.02
-1.39
-1.53
-0.02
-2.1

>  <PUBCHEM_SHAPE_SELFOVERLAP>  (1) 
1212.331

>  <PUBCHEM_SHAPE_VOLUME>  (1) 
359.4

>  <PUBCHEM_COORDINATE_TYPE>  (1) 
2
5
10

$$$$
