899
     RDKit          3D

 15 15  0  0  1  0  0  0  0  0999 V2000
    1.1780    1.2020   -0.0873 O   0  0  0  0  0  0  0  0  0  0  0  0
    0.3985   -1.7971   -1.7634 O   0  0  0  0  0  0  0  0  0  0  0  0
    1.7229   -2.3673    0.5992 O   0  0  0  0  0  0  0  0  0  0  0  0
   -0.4668    2.3549   -1.3114 O   0  0  0  0  0  0  0  0  0  0  0  0
    3.8196    1.3100    0.6976 O   0  0  0  0  0  0  0  0  0  0  0  0
   -3.6350   -0.6206   -0.2143 O   0  0  0  0  0  0  0  0  0  0  0  0
   -1.6358    0.4100    0.3854 N   0  0  0  0  0  0  0  0  0  0  0  0
   -0.1493   -1.3182   -0.5313 C   0  0  0  0  0  0  0  0  0  0  0  0
   -0.8499    0.0226   -0.7905 C   0  0  0  0  0  0  0  0  0  0  0  0
    0.9885   -1.1538    0.4856 C   0  0  0  0  0  0  0  0  0  0  0  0
    1.9255   -0.0083    0.0797 C   0  0  0  0  0  0  0  0  0  0  0  0
    0.1949    1.1063   -1.1201 C   0  0  0  0  0  0  0  0  0  0  0  0
    2.9886    0.2534    1.1421 C   0  0  0  0  0  0  0  0  0  0  0  0
   -2.9606    0.0498    0.5629 C   0  0  0  0  0  0  0  0  0  0  0  0
   -3.5192    0.5563    1.8656 C   0  0  0  0  0  0  0  0  0  0  0  0
  1 11  1  0
  1 12  1  0
  2  8  1  0
  3 10  1  0
  4 12  1  0
  5 13  1  0
  6 14  2  0
  7  9  1  0
  7 14  1  0
  8  9  1  0
  8 10  1  0
  9 12  1  0
 10 11  1  0
 11 13  1  0
 14 15  1  0
M  END
>  <PUBCHEM_COMPOUND_CID>  (1) 
899

>  <PUBCHEM_CONFORMER_RMSD>  (1) 
0.6

>  <PUBCHEM_CONFORMER_DIVERSEORDER>  (1) 
7
273
271
120
198
262
203
246
4
36
248
252
85
236
159
137
132
41
233
259
148
14
131
278
222
204
285
147
118
220
143
254
180
167
2
270
25
245
109
89
288
44
186
104
187
265
243
129
239
264
238
189
279
256
91
250
166
244
168
274
210
82
73
221
232
275
177
164
102
208
12
174
93
130
100
249
67
74
213
146
267
123
247
175
234
266
62
214
33
18
283
20
128
185
192
272
231
56
253
156
223
241
165
106
260
287
161
170
107
228
152
127
261
226
50
219
65
282
51
173
133
176
225
199
191
240
142
80
276
218
3
17
277
284
255
178
280
13
197
114
66
124
235
158
22
139
110
117
172
211
121
68
258
227
39
138
92
108
26
55
268
75
195
31
179
169
171
257
98
134
215
46
154
269
216
101
88
71
1
194
95
84
263
30
27
23
201
196
113
184
230
83
54
52
63
111
79
188
207
145
212
16
160
64
96
144
237
90
140
38
202
183
281
32
150
48
205
135
141
57
286
157
242
103
94
58
99
155
40
78
182
229
151
251
116
6
224
181
115
122
112
136
209
53
21
37
69
126
149
217
24
206
34
43
72
61
163
119
76
8
70
87
162
15
28
10
81
47
153
9
59
11
45
190
77
5
60
86
193
125
49
19
200
97
29
105
35
42

>  <PUBCHEM_MMFF94_PARTIAL_CHARGES>  (1) 
20
1 -0.56
10 0.28
11 0.28
12 0.56
13 0.28
14 0.57
15 0.06
2 -0.68
23 0.37
24 0.4
25 0.4
26 0.4
27 0.4
3 -0.68
4 -0.68
5 -0.68
6 -0.57
7 -0.73
8 0.28
9 0.3

>  <PUBCHEM_EFFECTIVE_ROTOR_COUNT>  (1) 
4.2

>  <PUBCHEM_PHARMACOPHORE_FEATURES>  (1) 
12
1 1 acceptor
1 2 acceptor
1 2 donor
1 3 acceptor
1 3 donor
1 4 acceptor
1 4 donor
1 5 acceptor
1 5 donor
1 6 acceptor
1 7 donor
6 1 8 9 10 11 12 rings

>  <PUBCHEM_HEAVY_ATOM_COUNT>  (1) 
15

>  <PUBCHEM_ATOM_DEF_STEREO_COUNT>  (1) 
0

>  <PUBCHEM_ATOM_UDEF_STEREO_COUNT>  (1) 
5

>  <PUBCHEM_BOND_DEF_STEREO_COUNT>  (1) 
0

>  <PUBCHEM_BOND_UDEF_STEREO_COUNT>  (1) 
0

>  <PUBCHEM_ISOTOPIC_ATOM_COUNT>  (1) 
0

>  <PUBCHEM_COMPONENT_COUNT>  (1) 
1

>  <PUBCHEM_CACTVS_TAUTO_COUNT>  (1) 
2

>  <PUBCHEM_CONFORMER_ID>  (1) 
0000038300000007

>  <PUBCHEM_MMFF94_ENERGY>  (1) 
29.5342

>  <PUBCHEM_FEATURE_SELFOVERLAP>  (1) 
60.958

>  <PUBCHEM_SHAPE_FINGERPRINT>  (1) 
10219947 1 18259984902718349257
10922049 32 16845579750512382374
11132069 177 18187921828492010386
11471102 22 18187368722540315057
12346645 44 18060700606290583178
12423570 1 11163505886759403030
124424 183 17095231541132872341
13839132 238 16917078754146975837
14128692 85 12179845017544743483
14252887 29 18040725740131383121
14943859 89 15913323615471959418
15775835 57 17775008989876798177
161256 15 18337392613321659502
16945 1 18261114083948447068
17844478 74 18187077309220277808
18186145 218 10879989151336654563
18380122 1 18187639159535522688
187816 3 10303824206505894392
201361 129 17417260835491310387
20379382 53 17629768876672470487
20653085 51 14692278625286989072
20820808 20 11815903348783359215
23382010 3 10879695577300070505
25 1 12031800170653250033
2748010 2 18047735023863908076
276578 36 18273221897677947066
305870 269 17632024069584074887
3250762 1 17830443990868929212
549884 4 9583513183909207339
568465 68 16877663486952364731

>  <PUBCHEM_SHAPE_MULTIPOLES>  (1) 
268.5
5.23
1.92
1.46
1.97
0.25
-0.01
-1.05
3.27
-0.93
-0.56
0.42
-0.15
-0.07

>  <PUBCHEM_SHAPE_SELFOVERLAP>  (1) 
534.667

>  <PUBCHEM_SHAPE_VOLUME>  (1) 
156

>  <PUBCHEM_COORDINATE_TYPE>  (1) 
2
5
10

$$$$
