8992
     RDKit          3D

 20 21  0  0  0  0  0  0  0  0999 V2000
    3.1272    0.9074    0.0188 S   0  0  0  0  0  0  0  0  0  0  0  0
   -2.2342    1.7007    0.0924 S   0  0  0  0  0  0  0  0  0  0  0  0
   -2.4644   -2.7397   -0.0169 F   0  0  0  0  0  0  0  0  0  0  0  0
   -3.1898   -1.0392    1.1172 F   0  0  0  0  0  0  0  0  0  0  0  0
   -3.1918   -0.9736   -1.0563 F   0  0  0  0  0  0  0  0  0  0  0  0
    3.2370    1.6483   -1.2247 O   0  0  0  0  0  0  0  0  0  0  0  0
    3.2641    1.5843    1.2958 O   0  0  0  0  0  0  0  0  0  0  0  0
   -3.3798    1.0020    0.6549 O   0  0  0  0  0  0  0  0  0  0  0  0
   -1.7838    2.9514    0.6840 O   0  0  0  0  0  0  0  0  0  0  0  0
    2.4191   -2.0229   -0.0473 N   0  0  0  0  0  0  0  0  0  0  0  0
    4.1621   -0.3537   -0.0234 N   0  0  0  0  0  0  0  0  0  0  0  0
   -2.4996    1.9452   -1.5770 N   0  0  0  0  0  0  0  0  0  0  0  0
    1.4933    0.2294    0.0184 C   0  0  0  0  0  0  0  0  0  0  0  0
   -0.8816    0.5911    0.0518 C   0  0  0  0  0  0  0  0  0  0  0  0
    1.3229   -1.1564   -0.0143 C   0  0  0  0  0  0  0  0  0  0  0  0
   -1.0795   -0.7892    0.0197 C   0  0  0  0  0  0  0  0  0  0  0  0
    0.4107    1.1089    0.0513 C   0  0  0  0  0  0  0  0  0  0  0  0
    0.0159   -1.6572   -0.0134 C   0  0  0  0  0  0  0  0  0  0  0  0
   -2.4539   -1.3752    0.0181 C   0  0  0  0  0  0  0  0  0  0  0  0
    3.7062   -1.5616   -0.0490 C   0  0  0  0  0  0  0  0  0  0  0  0
  1  6  2  0
  1  7  2  0
  1 11  1  0
  1 13  1  0
  2  8  2  0
  2  9  2  0
  2 12  1  0
  2 14  1  0
  3 19  1  0
  4 19  1  0
  5 19  1  0
 10 15  1  0
 10 20  1  0
 11 20  2  0
 13 15  2  0
 13 17  1  0
 14 16  1  0
 14 17  2  0
 15 18  1  0
 16 18  2  0
 16 19  1  0
M  END
>  <PUBCHEM_COMPOUND_CID>  (1) 
8992

>  <PUBCHEM_CONFORMER_RMSD>  (1) 
0.6

>  <PUBCHEM_CONFORMER_DIVERSEORDER>  (1) 
1
2

>  <PUBCHEM_MMFF94_PARTIAL_CHARGES>  (1) 
26
1 1.5
10 -0.55
11 -0.64
12 -0.98
13 -0.01
14 -0.01
15 0.1
16 -0.14
17 -0.15
18 -0.15
19 1.16
2 1.45
20 0.44
21 0.15
22 0.15
23 0.4
24 0.06
25 0.42
26 0.42
3 -0.34
4 -0.34
5 -0.34
6 -0.65
7 -0.65
8 -0.65
9 -0.65

>  <PUBCHEM_EFFECTIVE_ROTOR_COUNT>  (1) 
2.2

>  <PUBCHEM_PHARMACOPHORE_FEATURES>  (1) 
9
1 10 donor
1 11 donor
1 12 donor
1 6 acceptor
1 7 acceptor
1 8 acceptor
1 9 acceptor
6 1 10 11 13 15 20 rings
6 13 14 15 16 17 18 rings

>  <PUBCHEM_HEAVY_ATOM_COUNT>  (1) 
20

>  <PUBCHEM_ATOM_DEF_STEREO_COUNT>  (1) 
0

>  <PUBCHEM_ATOM_UDEF_STEREO_COUNT>  (1) 
0

>  <PUBCHEM_BOND_DEF_STEREO_COUNT>  (1) 
0

>  <PUBCHEM_BOND_UDEF_STEREO_COUNT>  (1) 
0

>  <PUBCHEM_ISOTOPIC_ATOM_COUNT>  (1) 
0

>  <PUBCHEM_COMPONENT_COUNT>  (1) 
1

>  <PUBCHEM_CACTVS_TAUTO_COUNT>  (1) 
2

>  <PUBCHEM_CONFORMER_ID>  (1) 
0000232000000001

>  <PUBCHEM_MMFF94_ENERGY>  (1) 
28.8307

>  <PUBCHEM_FEATURE_SELFOVERLAP>  (1) 
45.754

>  <PUBCHEM_SHAPE_FINGERPRINT>  (1) 
10608611 8 18413103948859763040
10616163 171 18411987978870173798
10922523 26 18408605829526214238
10967382 1 18123190100036091546
11132069 177 18338231664857216640
12173636 292 18270399386968564829
12553582 1 18195252349744936139
12730499 353 17394725078446242565
12932764 1 17917713543199433126
13140716 1 18338516326905318002
13224815 77 18412261761554825216
13380535 21 18411990134753514408
14178342 30 18336816499499120114
14223421 5 18340485659615389986
14614273 12 18334006194859660453
14787075 74 17536600964229372187
15196674 1 18411420617700152018
15219456 202 18412823577684307722
15442244 35 18266459798262216570
15536298 74 18342739615882589210
16945 1 18267022949630441466
17804303 29 18341058406589842286
18186145 218 18338800018264468766
18981168 100 18269253742970254160
200 152 18059563703067924847
20510252 161 18341894146869326792
21267235 1 18410867559199331834
21501502 16 18411140220971216182
21524375 3 18054228718089544801
221490 88 18410301306911743738
2334 1 18410293618466239406
23366157 5 18114184121216863234
23463225 33 18408888421373808766
23557571 272 18272658969004124966
23558518 356 18334298656146449458
23559900 14 18342450431566267432
2748010 2 18410855434537797198
335352 9 18050851013968262622
350125 39 18409738335092855432
5104073 3 18411134711061049754
69090 78 18338796702607757865
7097593 13 18044926875478055082
7364860 26 18271810052071360390
74978 22 18338232640073158026
7832392 63 18266742372776616840
81228 2 18261395589274921553
9709674 26 18342740685013350838

>  <PUBCHEM_SHAPE_MULTIPOLES>  (1) 
359.05
6.78
2.75
0.94
2.76
0.1
-0.12
0.15
0
-1.1
0.03
-0.24
0.4
0.13

>  <PUBCHEM_SHAPE_SELFOVERLAP>  (1) 
759.856

>  <PUBCHEM_SHAPE_VOLUME>  (1) 
202.7

>  <PUBCHEM_COORDINATE_TYPE>  (1) 
2
5
10

$$$$
