8993
     RDKit          3D

 19 20  0  0  1  0  0  0  0  0999 V2000
   -5.8215    1.0160    0.0632 Cl  0  0  0  0  0  0  0  0  0  0  0  0
   -3.1728    0.5705   -1.2033 S   0  0  0  0  0  0  0  0  0  0  0  0
    0.5852    0.0422   -0.2277 N   0  0  0  0  0  0  0  0  0  0  0  0
    3.8029    1.8455    0.2050 N   0  0  0  0  0  0  0  0  0  0  0  0
   -0.3830   -2.0807   -0.7093 N   0  0  0  0  0  0  0  0  0  0  0  0
    1.5686    0.8634    0.4374 C   0  0  0  0  0  0  0  0  0  0  0  0
    2.8059    0.9931   -0.4418 C   0  0  0  0  0  0  0  0  0  0  0  0
   -0.4203    0.6955   -1.0675 C   0  0  0  0  0  0  0  0  0  0  0  0
    0.5709   -1.3511   -0.0731 C   0  0  0  0  0  0  0  0  0  0  0  0
   -1.7347    0.9420   -0.3771 C   0  0  0  0  0  0  0  0  0  0  0  0
    3.2452    3.1702    0.4747 C   0  0  0  0  0  0  0  0  0  0  0  0
    4.9998    1.9548   -0.6282 C   0  0  0  0  0  0  0  0  0  0  0  0
    1.5487   -1.9240    0.7360 C   0  0  0  0  0  0  0  0  0  0  0  0
   -1.9362    1.4432    0.8726 C   0  0  0  0  0  0  0  0  0  0  0  0
   -3.3259    1.5303    1.1750 C   0  0  0  0  0  0  0  0  0  0  0  0
    1.5477   -3.3048    0.8992 C   0  0  0  0  0  0  0  0  0  0  0  0
   -4.1107    1.0881    0.1328 C   0  0  0  0  0  0  0  0  0  0  0  0
   -0.3523   -3.4199   -0.5269 C   0  0  0  0  0  0  0  0  0  0  0  0
    0.5825   -4.0743    0.2590 C   0  0  0  0  0  0  0  0  0  0  0  0
  1 17  1  0
  2 10  1  0
  2 17  1  0
  3  6  1  0
  3  8  1  0
  3  9  1  0
  4  7  1  0
  4 11  1  0
  4 12  1  0
  5  9  2  0
  5 18  1  0
  6  7  1  0
  8 10  1  0
  9 13  1  0
 10 14  2  0
 13 16  2  0
 14 15  1  0
 15 17  2  0
 16 19  1  0
 18 19  2  0
M  END
>  <PUBCHEM_COMPOUND_CID>  (1) 
8993

>  <PUBCHEM_CONFORMER_RMSD>  (1) 
0.8

>  <PUBCHEM_CONFORMER_DIVERSEORDER>  (1) 
4
243
200
255
252
239
226
188
208
238
99
151
244
153
245
110
77
176
44
191
241
80
100
209
92
140
89
171
121
36
234
247
119
74
154
57
102
246
237
168
42
87
143
206
85
131
136
23
123
115
24
240
227
182
46
120
260
51
93
207
169
96
41
157
122
218
233
174
27
210
50
215
101
161
156
201
217
223
192
195
259
180
7
58
235
251
148
60
133
186
172
194
212
205
202
28
94
167
79
216
116
249
196
66
5
224
82
135
189
109
150
159
165
228
162
178
248
163
43
45
173
62
75
111
144
31
177
187
190
236
1
114
257
95
199
250
30
112
181
261
104
185
175
184
193
52
130
17
29
126
53
134
146
221
256
72
106
78
84
64
160
183
21
108
38
141
170
76
155
67
258
12
142
105
118
98
230
166
204
59
129
33
222
20
137
65
86
164
128
68
152
61
73
90
83
124
254
220
55
40
107
81
56
8
197
198
10
6
132
19
69
242
70
14
103
138
179
203
232
11
214
219
97
253
127
145
211
9
225
16
125
3
35
91
39
37
213
117
158
139
231
34
47
25
54
13
147
113
26
22
229
88
71
15
149
49
48
18
32
2
63

>  <PUBCHEM_MMFF94_PARTIAL_CHARGES>  (1) 
25
1 -0.12
10 -0.14
11 0.27
12 0.27
13 -0.15
14 -0.15
15 -0.15
16 -0.15
17 0.16
18 0.16
19 -0.15
2 -0.08
3 -0.84
32 0.15
33 0.15
34 0.15
35 0.15
36 0.15
37 0.15
4 -0.81
5 -0.62
6 0.37
7 0.27
8 0.55
9 0.41

>  <PUBCHEM_EFFECTIVE_ROTOR_COUNT>  (1) 
6

>  <PUBCHEM_PHARMACOPHORE_FEATURES>  (1) 
5
1 3 cation
1 4 cation
1 5 acceptor
5 2 10 14 15 17 rings
6 5 9 13 16 18 19 rings

>  <PUBCHEM_HEAVY_ATOM_COUNT>  (1) 
19

>  <PUBCHEM_ATOM_DEF_STEREO_COUNT>  (1) 
0

>  <PUBCHEM_ATOM_UDEF_STEREO_COUNT>  (1) 
0

>  <PUBCHEM_BOND_DEF_STEREO_COUNT>  (1) 
0

>  <PUBCHEM_BOND_UDEF_STEREO_COUNT>  (1) 
0

>  <PUBCHEM_ISOTOPIC_ATOM_COUNT>  (1) 
0

>  <PUBCHEM_COMPONENT_COUNT>  (1) 
1

>  <PUBCHEM_CACTVS_TAUTO_COUNT>  (1) 
1

>  <PUBCHEM_CONFORMER_ID>  (1) 
0000232100000004

>  <PUBCHEM_MMFF94_ENERGY>  (1) 
49.9899

>  <PUBCHEM_FEATURE_SELFOVERLAP>  (1) 
25.371

>  <PUBCHEM_SHAPE_FINGERPRINT>  (1) 
10090160 65 18411698803307407565
1100329 8 18411132507563906794
11582403 64 16664536339326532205
12532896 13 18339082704406249622
12549972 3 17701537540546285704
12553582 1 17691688883450733471
12788726 201 17761482995590557074
13052359 8 18265614479793997922
13140716 1 18408038507175195098
13533116 47 18267024956451229545
136203 1 17905891731627127722
13955234 65 18337393717201900083
14787075 74 17986107637856410061
14790565 3 18265335195488582789
14866123 147 18265895946550558946
14955137 171 18193554472396530178
15842332 3 17916292841438821733
17138139 8 17769341119558833527
1813 80 17553485782324672262
18785283 64 18261110721474552378
18915476 22 18189319187786396277
19591789 44 18409449198047638438
204376 136 18335985349738192125
20510252 161 17834387200585934338
20645477 70 18189610537156300173
21049683 118 18124570205993266840
21054139 6 18341323513757255919
21524375 3 18343864433146716412
2255824 54 18268991977387552543
23419403 2 17551849897927145558
23557571 272 17765157559414450348
23558518 356 17757548934554890184
23559900 14 18049995607086387937
23845131 108 18335136527209974659
266924 78 18120625012301706719
283562 15 17760074521237729810
3091708 16 9334834461380303994
31174 14 18118683210574548695
33824 294 18336549330915897769
3729539 64 18121242908642385110
4340502 62 18410864274181963397
458136 41 18409729534477947677
474 4 18411982455283852753
5312544 6 18411693275462464335
59755656 520 18410854408199051268
6025842 7 18338511937886623613
621550 34 18260547780259083917
633830 44 18273501169089041412
7097593 13 17766281968724528465
7364860 26 18265897951666724490
81228 2 17685775018663754496

>  <PUBCHEM_SHAPE_MULTIPOLES>  (1) 
381.79
8.51
4.63
1.06
5.97
5.25
-0.02
-9.31
0.08
-5
0.66
0.38
-0.07
-0.84

>  <PUBCHEM_SHAPE_SELFOVERLAP>  (1) 
768.013

>  <PUBCHEM_SHAPE_VOLUME>  (1) 
226.8

>  <PUBCHEM_COORDINATE_TYPE>  (1) 
2
5
10

$$$$
