8994
     RDKit          3D

 26 27  0  0  0  0  0  0  0  0999 V2000
   -7.4105   -2.6353   -1.8415 Cl  0  0  0  0  0  0  0  0  0  0  0  0
   -6.3217    4.0481    0.3253 Cl  0  0  0  0  0  0  0  0  0  0  0  0
    0.1218   -1.1078    1.3288 O   0  0  0  0  0  0  0  0  0  0  0  0
    0.8868    0.2918   -0.3511 O   0  0  0  0  0  0  0  0  0  0  0  0
    7.4771    0.9091   -2.1479 O   0  0  0  0  0  0  0  0  0  0  0  0
    8.4936    0.6824   -0.1276 O   0  0  0  0  0  0  0  0  0  0  0  0
   -5.0893    0.2400   -0.2120 N   0  0  0  0  0  0  0  0  0  0  0  0
    2.3638   -0.8882    1.0379 N   0  0  0  0  0  0  0  0  0  0  0  0
   -5.7776   -0.5329   -1.2267 C   0  0  0  0  0  0  0  0  0  0  0  0
   -5.7619    1.3748    0.3885 C   0  0  0  0  0  0  0  0  0  0  0  0
   -3.7767   -0.0999    0.1765 C   0  0  0  0  0  0  0  0  0  0  0  0
   -3.1377   -1.1936   -0.4075 C   0  0  0  0  0  0  0  0  0  0  0  0
   -3.1175    0.6580    1.1443 C   0  0  0  0  0  0  0  0  0  0  0  0
   -6.5516   -1.6842   -0.6042 C   0  0  0  0  0  0  0  0  0  0  0  0
   -5.4913    2.6479   -0.3977 C   0  0  0  0  0  0  0  0  0  0  0  0
   -1.8395   -1.5294   -0.0238 C   0  0  0  0  0  0  0  0  0  0  0  0
   -1.8192    0.3221    1.5282 C   0  0  0  0  0  0  0  0  0  0  0  0
   -1.1802   -0.7716    0.9440 C   0  0  0  0  0  0  0  0  0  0  0  0
    3.6274   -0.5165    0.5780 C   0  0  0  0  0  0  0  0  0  0  0  0
    1.1152   -0.4833    0.5705 C   0  0  0  0  0  0  0  0  0  0  0  0
    4.7710   -1.0366    1.1842 C   0  0  0  0  0  0  0  0  0  0  0  0
    3.7472    0.3762   -0.4872 C   0  0  0  0  0  0  0  0  0  0  0  0
    6.1542    0.2285   -0.3400 C   0  0  0  0  0  0  0  0  0  0  0  0
    6.0343   -0.6641    0.7252 C   0  0  0  0  0  0  0  0  0  0  0  0
    5.0107    0.7487   -0.9461 C   0  0  0  0  0  0  0  0  0  0  0  0
    7.4716    0.6161   -0.8185 C   0  0  0  0  0  0  0  0  0  0  0  0
  1 14  1  0
  2 15  1  0
  3 18  1  0
  3 20  1  0
  4 20  2  0
  5 26  1  0
  6 26  2  0
  7  9  1  0
  7 10  1  0
  7 11  1  0
  8 19  1  0
  8 20  1  0
  9 14  1  0
 10 15  1  0
 11 12  2  0
 11 13  1  0
 12 16  1  0
 13 17  2  0
 16 18  2  0
 17 18  1  0
 19 21  2  0
 19 22  1  0
 21 24  1  0
 22 25  2  0
 23 24  2  0
 23 25  1  0
 23 26  1  0
M  END
>  <PUBCHEM_COMPOUND_CID>  (1) 
8994

>  <PUBCHEM_CONFORMER_RMSD>  (1) 
1

>  <PUBCHEM_CONFORMER_DIVERSEORDER>  (1) 
2
3
6
12
11
9
7
10
5
13
4
8
1

>  <PUBCHEM_MMFF94_PARTIAL_CHARGES>  (1) 
36
1 -0.29
10 0.37
11 0.1
12 -0.15
13 -0.15
14 0.29
15 0.29
16 -0.15
17 -0.15
18 0.08
19 0.12
2 -0.29
20 0.78
21 -0.15
22 -0.15
23 0.09
24 -0.15
25 -0.15
26 0.63
3 -0.23
31 0.15
32 0.15
37 0.15
38 0.15
39 0.37
4 -0.57
40 0.15
41 0.15
42 0.15
43 0.15
44 0.5
5 -0.65
6 -0.57
7 -0.84
8 -0.55
9 0.37

>  <PUBCHEM_EFFECTIVE_ROTOR_COUNT>  (1) 
10

>  <PUBCHEM_PHARMACOPHORE_FEATURES>  (1) 
8
1 4 acceptor
1 5 acceptor
1 6 acceptor
1 7 cation
1 8 donor
3 5 6 26 anion
6 11 12 13 16 17 18 rings
6 19 21 22 23 24 25 rings

>  <PUBCHEM_HEAVY_ATOM_COUNT>  (1) 
26

>  <PUBCHEM_ATOM_DEF_STEREO_COUNT>  (1) 
0

>  <PUBCHEM_ATOM_UDEF_STEREO_COUNT>  (1) 
0

>  <PUBCHEM_BOND_DEF_STEREO_COUNT>  (1) 
0

>  <PUBCHEM_BOND_UDEF_STEREO_COUNT>  (1) 
0

>  <PUBCHEM_ISOTOPIC_ATOM_COUNT>  (1) 
0

>  <PUBCHEM_COMPONENT_COUNT>  (1) 
1

>  <PUBCHEM_CACTVS_TAUTO_COUNT>  (1) 
3

>  <PUBCHEM_CONFORMER_ID>  (1) 
0000232200000002

>  <PUBCHEM_MMFF94_ENERGY>  (1) 
89.4849

>  <PUBCHEM_FEATURE_SELFOVERLAP>  (1) 
40.652

>  <PUBCHEM_SHAPE_FINGERPRINT>  (1) 
10 15 13767931234541000422
10595046 47 18335133172851052907
10670039 82 18408316688407822845
10906281 52 17967827019904142354
11089746 13 18260266360763130080
11315181 36 17749391490511289155
12082328 90 18413386531917106311
12166972 35 18341890844329866769
12236239 1 18335698317057918034
12895837 130 18262522486290020417
13167372 99 18114180779252324240
13668630 136 16343990217107290134
13685833 64 14261356864467422122
13690498 29 18130496518913370767
13782708 43 14333126339092614498
14251764 18 18113898277746618678
14856354 85 18342173423688393591
15142383 8 14418126336499806222
15183329 4 18040430001447008132
15461852 350 18273216413168253310
1577012 14 18335138661354598368
15876981 60 18408604756592149053
16989713 51 17774709975040076495
16992828 155 17824535276392714173
17093844 174 13334734640034731871
18335252 114 17458340871408238958
18643901 69 17560795581404315527
19427546 20 18341325623061074733
2026 5 15266520435078376668
21150785 3 18408602595163009518
21267235 1 16702304593726300291
21298829 104 18187369800846618740
21585481 151 8935008083727791784
22122407 14 17895773862467782328
22288116 15 18412262878542150239
23035841 295 11527948958603159038
23081809 10 18261386724277897467
23559900 14 16917056793815902178
2838139 119 18259989270985361109
34797466 226 17203045296313641562
4107672 100 18202280295532031167
4169191 19 17240488008887153420
57634706 229 17487629533748869273
58260988 114 13757494731175504013
5969126 39 14189577394993838555
636775 8 18058731441855187679
9953998 17 10881395439857401663
999808 66 15410615917279957007

>  <PUBCHEM_SHAPE_MULTIPOLES>  (1) 
505.37
25.29
2.56
1.44
22.86
2.24
-0.22
4.46
-11.26
-9.27
-0.58
0.7
-0.27
-3.17

>  <PUBCHEM_SHAPE_SELFOVERLAP>  (1) 
1041.403

>  <PUBCHEM_SHAPE_VOLUME>  (1) 
291.4

>  <PUBCHEM_COORDINATE_TYPE>  (1) 
2
5
10

$$$$
