8996
     RDKit          3D

 20 21  0  0  0  0  0  0  0  0999 V2000
    4.5855    1.7940    0.2171 O   0  0  0  0  0  0  0  0  0  0  0  0
    6.2139   -0.4571    0.1969 O   0  0  0  0  0  0  0  0  0  0  0  0
   -2.1479    1.8961    0.0994 O   0  0  0  0  0  0  0  0  0  0  0  0
   -1.4880   -0.3200   -0.0150 N   0  0  0  0  0  0  0  0  0  0  0  0
   -0.1739    0.0036    0.0310 N   0  0  0  0  0  0  0  0  0  0  0  0
   -6.4917   -0.5100   -0.0666 N   0  0  0  0  0  0  0  0  0  0  0  0
    2.0845   -0.8678    0.0688 C   0  0  0  0  0  0  0  0  0  0  0  0
    4.0409    0.5465    0.1651 C   0  0  0  0  0  0  0  0  0  0  0  0
    2.6540    0.4045    0.1222 C   0  0  0  0  0  0  0  0  0  0  0  0
    2.9020   -1.9980    0.0583 C   0  0  0  0  0  0  0  0  0  0  0  0
    4.8584   -0.5836    0.1544 C   0  0  0  0  0  0  0  0  0  0  0  0
    4.2889   -1.8558    0.1011 C   0  0  0  0  0  0  0  0  0  0  0  0
    0.6384   -1.0160    0.0234 C   0  0  0  0  0  0  0  0  0  0  0  0
   -3.8437    0.2771   -0.0074 C   0  0  0  0  0  0  0  0  0  0  0  0
   -2.4198    0.7004    0.0247 C   0  0  0  0  0  0  0  0  0  0  0  0
   -4.7926    1.0878    0.5691 C   0  0  0  0  0  0  0  0  0  0  0  0
   -4.1713   -0.9130   -0.6124 C   0  0  0  0  0  0  0  0  0  0  0  0
   -6.1056    0.6487    0.5129 C   0  0  0  0  0  0  0  0  0  0  0  0
   -5.5120   -1.2626   -0.6154 C   0  0  0  0  0  0  0  0  0  0  0  0
    4.8800    2.4251   -1.0276 C   0  0  0  0  0  0  0  0  0  0  0  0
  1  8  1  0
  1 20  1  0
  2 11  1  0
  3 15  2  0
  4  5  1  0
  4 15  1  0
  5 13  2  0
  6 18  2  0
  6 19  1  0
  7  9  1  0
  7 10  2  0
  7 13  1  0
  8  9  2  0
  8 11  1  0
 10 12  1  0
 11 12  2  0
 14 15  1  0
 14 16  2  0
 14 17  1  0
 16 18  1  0
 17 19  2  0
M  END
>  <PUBCHEM_COMPOUND_CID>  (1) 
8996

>  <PUBCHEM_CONFORMER_RMSD>  (1) 
0.8

>  <PUBCHEM_CONFORMER_DIVERSEORDER>  (1) 
1
5
4
6
3
2

>  <PUBCHEM_MMFF94_PARTIAL_CHARGES>  (1) 
30
1 -0.36
10 -0.15
11 0.08
12 -0.15
13 0.3
14 0.09
15 0.54
16 -0.15
17 -0.15
18 0.16
19 0.16
2 -0.53
20 0.28
21 0.15
22 0.15
23 0.15
24 0.06
25 0.15
26 0.15
27 0.37
28 0.15
29 0.15
3 -0.57
33 0.45
4 -0.37
5 -0.51
6 -0.62
7 0.09
8 0.08
9 -0.15

>  <PUBCHEM_EFFECTIVE_ROTOR_COUNT>  (1) 
5

>  <PUBCHEM_PHARMACOPHORE_FEATURES>  (1) 
8
1 1 acceptor
1 2 donor
1 3 acceptor
1 4 donor
1 5 acceptor
1 6 acceptor
6 6 14 16 17 18 19 rings
6 7 8 9 10 11 12 rings

>  <PUBCHEM_HEAVY_ATOM_COUNT>  (1) 
20

>  <PUBCHEM_ATOM_DEF_STEREO_COUNT>  (1) 
0

>  <PUBCHEM_ATOM_UDEF_STEREO_COUNT>  (1) 
0

>  <PUBCHEM_BOND_DEF_STEREO_COUNT>  (1) 
0

>  <PUBCHEM_BOND_UDEF_STEREO_COUNT>  (1) 
1

>  <PUBCHEM_ISOTOPIC_ATOM_COUNT>  (1) 
0

>  <PUBCHEM_COMPONENT_COUNT>  (1) 
1

>  <PUBCHEM_CACTVS_TAUTO_COUNT>  (1) 
9

>  <PUBCHEM_CONFORMER_ID>  (1) 
0000232400000001

>  <PUBCHEM_MMFF94_ENERGY>  (1) 
65.681

>  <PUBCHEM_FEATURE_SELFOVERLAP>  (1) 
40.603

>  <PUBCHEM_SHAPE_FINGERPRINT>  (1) 
10411042 1 18048595916517155194
10595046 47 18413388739588090931
10912923 1 18272371953878428619
11287383 113 18410012134873415451
11315181 36 18060136540595087841
11724838 91 18411693314359873482
12107183 9 17549264727109936635
12166972 35 18259706696597366740
12236239 1 18413389843589793445
12616971 3 18202272602707709374
13167372 99 18341614763362490521
13167823 11 18341609283232211831
13533116 47 16950834813376241898
1420 363 18113904849162749755
14251732 16 18336829796691598355
14251764 18 18333446539705239858
14341114 176 18341898441694093639
14461889 52 18262517125395012098
14528608 73 18341333374395616092
15196674 1 18411981343129701705
17834072 33 18412825785023275639
17844677 252 18337395937431278133
19427546 62 18262521506778663386
19489759 90 14779264194554065383
20645477 70 18341332189301679638
21267235 1 18341336604685899646
220451 1 18131355219761101231
23081809 10 18131348609890672871
23402539 116 18409726240807776431
23522609 53 17986416510345710641
23536379 177 18343582915267636755
23559900 14 18410288129387376131
239999 70 18272093747483223694
3004659 81 18342458115083444290
335352 9 18408327692857613078
34797466 226 16271930462189349713
3545911 37 18408323280850013874
4073 2 18187088398562605699
4214541 1 18342174415329362137
4325135 7 18413387635617985207
5104073 3 18413107238868145971
542803 24 18412262826743689787
54446538 1 18410855447523140136
7495541 125 17846771923172229834

>  <PUBCHEM_SHAPE_MULTIPOLES>  (1) 
379.04
17.45
1.99
0.73
9.37
0.5
0.07
0.99
0.15
-2.39
0.27
0.08
0.11
-1.32

>  <PUBCHEM_SHAPE_SELFOVERLAP>  (1) 
810.52

>  <PUBCHEM_SHAPE_VOLUME>  (1) 
208.6

>  <PUBCHEM_COORDINATE_TYPE>  (1) 
2
5
10

$$$$
