9006
     RDKit          3D

 10 10  0  0  0  0  0  0  0  0999 V2000
    2.3285   -0.9734    1.6393 Cl  0  0  0  0  0  0  0  0  0  0  0  0
    2.3275   -0.9718   -1.6404 Cl  0  0  0  0  0  0  0  0  0  0  0  0
    1.7653    0.1033    0.0001 Si  0  0  0  0  0  4  0  0  0  0  0  0
   -0.0977    0.0517    0.0003 C   0  0  0  0  0  0  0  0  0  0  0  0
   -0.8283    1.2399    0.0004 C   0  0  0  0  0  0  0  0  0  0  0  0
   -0.7614   -1.1751    0.0000 C   0  0  0  0  0  0  0  0  0  0  0  0
    2.5310    1.7635    0.0003 C   0  0  0  0  0  0  0  0  0  0  0  0
   -2.2227    1.2013    0.0002 C   0  0  0  0  0  0  0  0  0  0  0  0
   -2.1557   -1.2138   -0.0002 C   0  0  0  0  0  0  0  0  0  0  0  0
   -2.8864   -0.0256   -0.0001 C   0  0  0  0  0  0  0  0  0  0  0  0
  1  3  1  0
  2  3  1  0
  3  4  1  0
  3  7  1  0
  4  5  2  0
  4  6  1  0
  5  8  1  0
  6  9  2  0
  8 10  2  0
  9 10  1  0
M  END
>  <PUBCHEM_COMPOUND_CID>  (1) 
9006

>  <PUBCHEM_CONFORMER_RMSD>  (1) 
0.4

>  <PUBCHEM_CONFORMER_DIVERSEORDER>  (1) 
1
2

>  <PUBCHEM_MMFF94_PARTIAL_CHARGES>  (1) 
15
1 -0.37
10 -0.15
14 0.15
15 0.15
16 0.15
17 0.15
18 0.15
2 -0.37
3 1.04
4 -0.22
5 -0.15
6 -0.15
7 -0.08
8 -0.15
9 -0.15

>  <PUBCHEM_EFFECTIVE_ROTOR_COUNT>  (1) 
1

>  <PUBCHEM_PHARMACOPHORE_FEATURES>  (1) 
1
6 4 5 6 8 9 10 rings

>  <PUBCHEM_HEAVY_ATOM_COUNT>  (1) 
10

>  <PUBCHEM_ATOM_DEF_STEREO_COUNT>  (1) 
0

>  <PUBCHEM_ATOM_UDEF_STEREO_COUNT>  (1) 
0

>  <PUBCHEM_BOND_DEF_STEREO_COUNT>  (1) 
0

>  <PUBCHEM_BOND_UDEF_STEREO_COUNT>  (1) 
0

>  <PUBCHEM_ISOTOPIC_ATOM_COUNT>  (1) 
0

>  <PUBCHEM_COMPONENT_COUNT>  (1) 
1

>  <PUBCHEM_CACTVS_TAUTO_COUNT>  (1) 
1

>  <PUBCHEM_CONFORMER_ID>  (1) 
0000232E00000001

>  <PUBCHEM_MMFF94_ENERGY>  (1) 
16.7758

>  <PUBCHEM_FEATURE_SELFOVERLAP>  (1) 
5.074

>  <PUBCHEM_SHAPE_FINGERPRINT>  (1) 
10857977 72 18201712989964787323
12524768 44 18341336677167418445
12716758 59 18340215106719511431
12897270 3 18199759187893562700
12932764 1 18040721337679296797
14252887 29 18052277364038857339
14325111 11 18410855468971563813
14648413 74 18272381849409335748
15219456 202 18130797767049138996
15310529 11 16805613529419016725
15775835 57 18041000605121971020
16945 1 18266459815251869763
170605 34 18337393867568290716
17990270 104 18272374178544796292
19973954 147 18272097079918486852
20082192 1 18272658934765692872
20201158 50 18059583451201048838
20559304 39 18187641345631717674
20645464 45 17916853643212230419
20645476 183 17603598429931536999
20653085 51 18199483094600505729
20671657 53 17558581057136726892
20871998 184 17912930770613829647
21524375 3 17978227489565573820
22445834 79 17968363546907574682
22802520 49 18199489725766234206
232386 152 18188482476612265754
23552423 10 18114746048086950701
2748010 2 18411704304832959573
3248919 1 18060133228363107425
369184 2 18113891676239369081
5084963 1 17845942822658925302
7364860 26 18410852153615358234
8030462 33 17822014206906633990

>  <PUBCHEM_SHAPE_MULTIPOLES>  (1) 
227.75
4.56
1.68
1.21
1.06
0.36
0
0.08
0
-0.28
0
-1.25
-0.5
0

>  <PUBCHEM_SHAPE_SELFOVERLAP>  (1) 
430.441

>  <PUBCHEM_SHAPE_VOLUME>  (1) 
142.5

>  <PUBCHEM_COORDINATE_TYPE>  (1) 
2
5
10

$$$$
