901
     RDKit          3D

 17 16  0  0  1  0  0  0  0  0999 V2000
   -2.9097    0.0499   -0.3396 P   0  0  0  0  0  0  0  0  0  0  0  0
   -1.6786    0.8103    0.3829 O   0  0  0  0  0  0  0  0  0  0  0  0
    1.0489    1.4248   -1.7469 O   0  0  0  0  0  0  0  0  0  0  0  0
    2.5133    2.7096   -0.5838 O   0  0  0  0  0  0  0  0  0  0  0  0
   -0.9751   -0.8992    1.7333 O   0  0  0  0  0  0  0  0  0  0  0  0
    2.7593   -2.3734    0.2526 O   0  0  0  0  0  0  0  0  0  0  0  0
   -3.3989    1.1004   -1.4671 O   0  0  0  0  0  0  0  0  0  0  0  0
   -2.1700   -1.1031   -1.1982 O   0  0  0  0  0  0  0  0  0  0  0  0
   -3.9799   -0.4400    0.5915 O   0  0  0  0  0  0  0  0  0  0  0  0
    1.3391   -0.6562   -0.4226 N   0  0  0  0  0  0  0  0  0  0  0  0
    1.5994    0.7063    1.6205 C   0  0  0  0  0  0  0  0  0  0  0  0
    2.0519    0.4412    0.1799 C   0  0  0  0  0  0  0  0  0  0  0  0
    0.1711    1.2355    1.7781 C   0  0  0  0  0  0  0  0  0  0  0  0
    1.9262    1.6458   -0.7330 C   0  0  0  0  0  0  0  0  0  0  0  0
   -0.8694    0.2462    1.3172 C   0  0  0  0  0  0  0  0  0  0  0  0
    1.7563   -1.9757   -0.3341 C   0  0  0  0  0  0  0  0  0  0  0  0
    0.8161   -2.9226   -1.0307 C   0  0  0  0  0  0  0  0  0  0  0  0
  1  2  1  0
  1  7  1  0
  1  8  1  0
  1  9  2  0
  2 15  1  0
  3 14  1  0
  4 14  2  0
  5 15  2  0
  6 16  2  0
 10 12  1  0
 10 16  1  0
 11 12  1  0
 11 13  1  0
 12 14  1  0
 13 15  1  0
 16 17  1  0
M  END
>  <PUBCHEM_COMPOUND_CID>  (1) 
901

>  <PUBCHEM_CONFORMER_RMSD>  (1) 
0.8

>  <PUBCHEM_CONFORMER_DIVERSEORDER>  (1) 
1
242
220
76
165
249
397
97
346
119
142
31
66
227
279
376
367
171
301
243
58
160
122
296
395
150
337
247
7
422
43
327
342
278
175
29
321
87
377
213
146
99
80
50
176
27
380
6
257
339
22
386
416
326
425
25
86
133
223
96
317
182
93
382
250
246
32
320
190
113
269
17
187
331
335
57
149
202
211
214
364
259
196
297
226
285
157
347
404
88
334
271
366
371
37
90
384
273
195
418
198
39
62
292
388
42
235
60
49
210
374
112
230
18
362
283
403
316
69
348
73
161
229
268
16
387
12
139
77
141
179
298
45
68
303
94
313
51
328
413
409
254
277
224
363
253
115
116
260
378
34
406
372
8
100
59
201
40
410
351
289
82
78
399
407
375
48
241
400
280
158
125
46
123
221
358
310
79
357
233
428
322
114
392
308
101
217
345
349
415
108
136
4
2
232
23
103
394
222
408
145
104
65
162
117
231
64
360
5
332
138
21
218
286
203
193
61
185
71
341
244
28
252
140
336
287
170
359
294
314
361
390
9
228
178
194
369
56
14
421
315
402
263
306
391
84
131
192
206
15
261
411
295
24
389
72
304
168
373
81
3
238
330
281
340
177
239
135
212
276
151
270
147
128
44
41
356
166
19
183
95
173
427
412
368
344
240
36
124
265
309
129
333
424
352
106
234
275
47
350
414
85
134
181
338
35
383
10
199
426
83
300
325
319
216
381
255
307
121
258
148
299
417
262
365
92
393
110
291
159
305
67
318
163
293
38
126
89
420
144
379
33
197
204
152
91
245
191
405
205
30
98
172
153
156
208
132
324
370
189
251
120
225
284
274
343
188
155
401
118
311
396
63
385
75
130
302
143
107
353
248
105
423
323
329
256
312
20
11
267
290
74
266
154
209
102
54
272
355
167
109
184
264
219
13
174
55
215
53
419
26
236
70
288
398
111
127
52
180
164
169
354
186
237
282
207
200
137

>  <PUBCHEM_MMFF94_PARTIAL_CHARGES>  (1) 
20
1 1.51
10 -0.73
12 0.36
13 0.06
14 0.66
15 0.66
16 0.57
17 0.06
2 -0.42
23 0.37
27 0.5
28 0.5
29 0.5
3 -0.65
4 -0.57
5 -0.57
6 -0.57
7 -0.77
8 -0.77
9 -0.7

>  <PUBCHEM_EFFECTIVE_ROTOR_COUNT>  (1) 
8

>  <PUBCHEM_PHARMACOPHORE_FEATURES>  (1) 
10
1 10 donor
1 3 acceptor
1 4 acceptor
1 5 acceptor
1 6 acceptor
1 7 acceptor
1 8 acceptor
1 9 acceptor
3 3 4 14 anion
4 1 7 8 9 anion

>  <PUBCHEM_HEAVY_ATOM_COUNT>  (1) 
17

>  <PUBCHEM_ATOM_DEF_STEREO_COUNT>  (1) 
0

>  <PUBCHEM_ATOM_UDEF_STEREO_COUNT>  (1) 
1

>  <PUBCHEM_BOND_DEF_STEREO_COUNT>  (1) 
0

>  <PUBCHEM_BOND_UDEF_STEREO_COUNT>  (1) 
0

>  <PUBCHEM_ISOTOPIC_ATOM_COUNT>  (1) 
0

>  <PUBCHEM_COMPONENT_COUNT>  (1) 
1

>  <PUBCHEM_CACTVS_TAUTO_COUNT>  (1) 
2

>  <PUBCHEM_CONFORMER_ID>  (1) 
0000038500000001

>  <PUBCHEM_MMFF94_ENERGY>  (1) 
-12.3245

>  <PUBCHEM_FEATURE_SELFOVERLAP>  (1) 
50.846

>  <PUBCHEM_SHAPE_FINGERPRINT>  (1) 
121448 382 17771915093137370672
12654903 92 18117551821620458621
14251745 187 17973150743204348660
14817 1 9175181395971779082
15775835 57 18059298776325827461
15852999 172 18336259149787284184
16945 1 18340487772649635232
17954114 43 17903399018634521534
18186145 218 17530963558277207413
18522851 268 18334010597227421631
19786989 88 18188783867051517769
20671657 53 18193565471343317382
21947302 44 17676212406659148320
22713019 5 17245559867279586092
22802520 49 18261394378189238729
22889148 1 17480322478973343134
232386 152 17203046270664692266
23419403 2 17622401045307851560
23532345 88 18410570682464272319
23557571 272 16734412592631476363
4175511 335 18272926137397442573
5262128 65 18114468855440807629
81228 2 17252885857716145218

>  <PUBCHEM_SHAPE_MULTIPOLES>  (1) 
301.77
4.85
2.73
1.72
4.75
1.53
0.18
-0.07
-1.03
-2.61
-0.75
0.19
-0.66
-0.27

>  <PUBCHEM_SHAPE_SELFOVERLAP>  (1) 
577.276

>  <PUBCHEM_SHAPE_VOLUME>  (1) 
184.5

>  <PUBCHEM_COORDINATE_TYPE>  (1) 
2
5
10

$$$$
