9011
     RDKit          3D

 16 15  0  0  0  0  0  0  0  0999 V2000
   -0.6063    1.7387    0.4186 S   0  0  0  0  0  0  0  0  0  0  0  0
    1.8080   -0.3460    0.4152 S   0  0  0  0  0  0  0  0  0  0  0  0
   -1.2044   -1.3948    0.4177 S   0  0  0  0  0  0  0  0  0  0  0  0
    0.0000   -0.0010    1.4441 P   0  0  0  0  0  0  0  0  0  0  0  0
    0.0001    4.4551    0.5004 C   0  0  0  0  0  0  0  0  0  0  0  0
    3.8625   -2.2234    0.4997 C   0  0  0  0  0  0  0  0  0  0  0  0
   -3.8597   -2.2287    0.5005 C   0  0  0  0  0  0  0  0  0  0  0  0
    0.3380    4.5267   -0.9912 C   0  0  0  0  0  0  0  0  0  0  0  0
    3.7521   -2.5588   -0.9902 C   0  0  0  0  0  0  0  0  0  0  0  0
   -4.0919   -1.9696   -0.9905 C   0  0  0  0  0  0  0  0  0  0  0  0
    0.3267    3.1059    1.1401 C   0  0  0  0  0  0  0  0  0  0  0  0
    2.5315   -1.8322    1.1414 C   0  0  0  0  0  0  0  0  0  0  0  0
   -2.8543   -1.2718    1.1408 C   0  0  0  0  0  0  0  0  0  0  0  0
    0.0874    5.9197   -1.5487 C   0  0  0  0  0  0  0  0  0  0  0  0
    5.0836   -3.0372   -1.5492 C   0  0  0  0  0  0  0  0  0  0  0  0
   -5.1733   -2.8826   -1.5484 C   0  0  0  0  0  0  0  0  0  0  0  0
  1  4  1  0
  1 11  1  0
  2  4  1  0
  2 12  1  0
  3  4  1  0
  3 13  1  0
  5  8  1  0
  5 11  1  0
  6  9  1  0
  6 12  1  0
  7 10  1  0
  7 13  1  0
  8 14  1  0
  9 15  1  0
 10 16  1  0
M  END
>  <PUBCHEM_COMPOUND_CID>  (1) 
9011

>  <PUBCHEM_CONFORMER_RMSD>  (1) 
1.2

>  <PUBCHEM_CONFORMER_DIVERSEORDER>  (1) 
1
14
24
5
19
7
25
4
17
11
2
3
15
8
21
12
20
23
6
13
9
16
18
10
22

>  <PUBCHEM_MMFF94_PARTIAL_CHARGES>  (1) 
7
1 -0.32
11 0.23
12 0.23
13 0.23
2 -0.32
3 -0.32
4 0.28

>  <PUBCHEM_EFFECTIVE_ROTOR_COUNT>  (1) 
12

>  <PUBCHEM_PHARMACOPHORE_FEATURES>  (1) 
3
1 14 hydrophobe
1 15 hydrophobe
1 16 hydrophobe

>  <PUBCHEM_HEAVY_ATOM_COUNT>  (1) 
16

>  <PUBCHEM_ATOM_DEF_STEREO_COUNT>  (1) 
0

>  <PUBCHEM_ATOM_UDEF_STEREO_COUNT>  (1) 
0

>  <PUBCHEM_BOND_DEF_STEREO_COUNT>  (1) 
0

>  <PUBCHEM_BOND_UDEF_STEREO_COUNT>  (1) 
0

>  <PUBCHEM_ISOTOPIC_ATOM_COUNT>  (1) 
0

>  <PUBCHEM_COMPONENT_COUNT>  (1) 
1

>  <PUBCHEM_CACTVS_TAUTO_COUNT>  (1) 
1

>  <PUBCHEM_CONFORMER_ID>  (1) 
0000233300000001

>  <PUBCHEM_MMFF94_ENERGY>  (1) 
-2.1072

>  <PUBCHEM_FEATURE_SELFOVERLAP>  (1) 
15.223

>  <PUBCHEM_SHAPE_FINGERPRINT>  (1) 
12788726 201 18046343029052883931
14251757 5 18121501254359947485
15842332 3 17700996576404020923
15878777 1 11378703577984002809
17539 30 18195244416982395698
21304303 282 17399763057112497623
3057174 1 16825306611374358868
58779409 8 17763465011249273130

>  <PUBCHEM_SHAPE_MULTIPOLES>  (1) 
344.67
8.64
8.63
1.7
1.5
18.8
0.38
-18.82
4.88
-1.49
4.88
0
0
0

>  <PUBCHEM_SHAPE_SELFOVERLAP>  (1) 
564.492

>  <PUBCHEM_SHAPE_VOLUME>  (1) 
236.3

>  <PUBCHEM_COORDINATE_TYPE>  (1) 
2
5
10

$$$$
