9023
     RDKit          3D

  6  5  0  0  0  0  0  0  0  0999 V2000
    2.5855    0.0002    0.2944 O   0  0  0  0  0  0  0  0  0  0  0  0
    1.4399   -0.0004   -0.5050 N   0  0  0  0  0  0  0  0  0  0  0  0
   -0.9888    0.0000   -0.3193 C   0  0  0  0  0  0  0  0  0  0  0  0
   -1.7195    1.2580    0.1325 C   0  0  0  0  0  0  0  0  0  0  0  0
   -1.7202   -1.2577    0.1327 C   0  0  0  0  0  0  0  0  0  0  0  0
    0.4031   -0.0001    0.2646 C   0  0  0  0  0  0  0  0  0  0  0  0
  1  2  1  0
  2  6  2  0
  3  4  1  0
  3  5  1  0
  3  6  1  0
M  END
>  <PUBCHEM_COMPOUND_CID>  (1) 
9023

>  <PUBCHEM_CONFORMER_RMSD>  (1) 
0.4

>  <PUBCHEM_CONFORMER_DIVERSEORDER>  (1) 
1

>  <PUBCHEM_MMFF94_PARTIAL_CHARGES>  (1) 
6
1 -0.34
14 0.06
15 0.4
2 -0.51
3 0.06
6 0.33

>  <PUBCHEM_EFFECTIVE_ROTOR_COUNT>  (1) 
1

>  <PUBCHEM_PHARMACOPHORE_FEATURES>  (1) 
3
1 1 anion
1 2 acceptor
3 3 4 5 hydrophobe

>  <PUBCHEM_HEAVY_ATOM_COUNT>  (1) 
6

>  <PUBCHEM_ATOM_DEF_STEREO_COUNT>  (1) 
0

>  <PUBCHEM_ATOM_UDEF_STEREO_COUNT>  (1) 
0

>  <PUBCHEM_BOND_DEF_STEREO_COUNT>  (1) 
0

>  <PUBCHEM_BOND_UDEF_STEREO_COUNT>  (1) 
1

>  <PUBCHEM_ISOTOPIC_ATOM_COUNT>  (1) 
0

>  <PUBCHEM_COMPONENT_COUNT>  (1) 
1

>  <PUBCHEM_CACTVS_TAUTO_COUNT>  (1) 
2

>  <PUBCHEM_CONFORMER_ID>  (1) 
0000233F00000001

>  <PUBCHEM_MMFF94_ENERGY>  (1) 
3.5378

>  <PUBCHEM_FEATURE_SELFOVERLAP>  (1) 
15.223

>  <PUBCHEM_SHAPE_FINGERPRINT>  (1) 
139733 1 9366809363412237423
16714656 1 18410578383583038661
20096714 4 18264773164277919229
21040471 1 18194406593422239829
23552449 1 18341611537926407993
24536 1 18411694387568791796
29004967 10 17203617007536304450
5460574 1 8935005875528291870
5943 1 16195079178333074639

>  <PUBCHEM_SHAPE_MULTIPOLES>  (1) 
112.63
3
1.16
0.67
1.88
0
-0.01
0
0.19
-0.95
0.07
0.01
0
0

>  <PUBCHEM_SHAPE_SELFOVERLAP>  (1) 
197.307

>  <PUBCHEM_SHAPE_VOLUME>  (1) 
75.6

>  <PUBCHEM_COORDINATE_TYPE>  (1) 
2
5
10

$$$$
