9034
     RDKit          3D

 19 19  0  0  1  0  0  0  0  0999 V2000
   -1.8960   -1.1866    1.7837 O   0  0  0  0  0  0  0  0  0  0  0  0
    0.8163   -0.3646   -1.8786 O   0  0  0  0  0  0  0  0  0  0  0  0
   -3.2856    1.6490   -1.6243 O   0  0  0  0  0  0  0  0  0  0  0  0
   -2.5868    0.3821    0.2081 N   0  0  0  0  0  0  0  0  0  0  0  0
   -1.2151    0.6848   -1.6939 N   0  0  0  0  0  0  0  0  0  0  0  0
   -0.2131   -0.2752    0.3129 C   0  0  0  0  0  0  0  0  0  0  0  0
    0.3995    0.9514    1.0125 C   0  0  0  0  0  0  0  0  0  0  0  0
    0.6173   -1.5195    0.6653 C   0  0  0  0  0  0  0  0  0  0  0  0
   -1.6374   -0.4365    0.8410 C   0  0  0  0  0  0  0  0  0  0  0  0
   -0.1417   -0.0273   -1.1848 C   0  0  0  0  0  0  0  0  0  0  0  0
    0.3062    0.7990    2.5252 C   0  0  0  0  0  0  0  0  0  0  0  0
   -2.4231    0.9697   -1.0613 C   0  0  0  0  0  0  0  0  0  0  0  0
    0.1426   -2.7075   -0.1034 C   0  0  0  0  0  0  0  0  0  0  0  0
    1.7976    1.1241    0.5914 C   0  0  0  0  0  0  0  0  0  0  0  0
   -3.8971    0.5099    0.8348 C   0  0  0  0  0  0  0  0  0  0  0  0
    0.9084   -3.3893   -0.9625 C   0  0  0  0  0  0  0  0  0  0  0  0
    2.9399    1.2715    0.2506 C   0  0  0  0  0  0  0  0  0  0  0  0
    4.3358    1.4513   -0.1660 C   0  0  0  0  0  0  0  0  0  0  0  0
    5.0323    0.1138   -0.3504 C   0  0  0  0  0  0  0  0  0  0  0  0
  1  9  2  0
  2 10  2  0
  3 12  2  0
  4  9  1  0
  4 12  1  0
  4 15  1  0
  5 10  1  0
  5 12  1  0
  6  7  1  0
  6  8  1  0
  6  9  1  0
  6 10  1  0
  7 11  1  0
  7 14  1  0
  8 13  1  0
 13 16  2  0
 14 17  3  0
 17 18  1  0
 18 19  1  0
M  END
>  <PUBCHEM_COMPOUND_CID>  (1) 
9034

>  <PUBCHEM_CONFORMER_RMSD>  (1) 
0.6

>  <PUBCHEM_CONFORMER_DIVERSEORDER>  (1) 
2
23
31
33
13
6
41
38
25
9
22
1
7
29
5
14
18
26
21
40
36
32
30
11
27
37
42
3
24
39
28
35
8
15
10
12
19
34
20
16
17
4

>  <PUBCHEM_MMFF94_PARTIAL_CHARGES>  (1) 
21
1 -0.57
10 0.57
12 0.69
13 -0.29
14 -0.2
15 0.3
16 -0.3
17 -0.2
18 0.2
2 -0.57
26 0.37
27 0.15
3 -0.57
31 0.15
32 0.15
4 -0.42
5 -0.49
6 0.12
7 0.2
8 0.14
9 0.57

>  <PUBCHEM_EFFECTIVE_ROTOR_COUNT>  (1) 
3.6

>  <PUBCHEM_PHARMACOPHORE_FEATURES>  (1) 
8
1 1 acceptor
1 11 hydrophobe
1 16 hydrophobe
1 19 hydrophobe
1 2 acceptor
1 3 acceptor
1 5 donor
6 4 5 6 9 10 12 rings

>  <PUBCHEM_HEAVY_ATOM_COUNT>  (1) 
19

>  <PUBCHEM_ATOM_DEF_STEREO_COUNT>  (1) 
0

>  <PUBCHEM_ATOM_UDEF_STEREO_COUNT>  (1) 
2

>  <PUBCHEM_BOND_DEF_STEREO_COUNT>  (1) 
0

>  <PUBCHEM_BOND_UDEF_STEREO_COUNT>  (1) 
0

>  <PUBCHEM_ISOTOPIC_ATOM_COUNT>  (1) 
0

>  <PUBCHEM_COMPONENT_COUNT>  (1) 
1

>  <PUBCHEM_CACTVS_TAUTO_COUNT>  (1) 
3

>  <PUBCHEM_CONFORMER_ID>  (1) 
0000234A00000002

>  <PUBCHEM_MMFF94_ENERGY>  (1) 
43.6448

>  <PUBCHEM_FEATURE_SELFOVERLAP>  (1) 
40.597

>  <PUBCHEM_SHAPE_FINGERPRINT>  (1) 
10062212 137 16773799190492060220
10922049 32 18334292076245950244
11322862 65 18268712895171959910
11578080 2 17755900461059560341
12592029 89 18187646877903094546
13464514 151 18194964032758936837
14142880 1 12685626955144687286
14817 1 15677366375725918843
15163728 17 18189917351960769860
15219456 202 18041556936330186249
16945 1 18197207045290690747
1813 80 17054993602611899550
18186145 218 18272923960229104672
18915476 22 18267305335398967831
19765921 60 17917997165464671593
20645477 56 18192146208423078408
23114952 82 18048023082730214301
23402539 116 15195565697751940848
23419403 2 17974882508351714043
23557571 272 17894920628865012577
25 1 18343581824124325904
3729539 64 18192725445182708318
4340502 62 18129122116066786379
633830 44 17988656180933945644
81228 2 17546428437855103898

>  <PUBCHEM_SHAPE_MULTIPOLES>  (1) 
363.44
6.14
2.45
1.84
5.09
3.03
-0.12
-3.58
1.17
0.79
0.14
-1.08
-0.45
0.7

>  <PUBCHEM_SHAPE_SELFOVERLAP>  (1) 
745.621

>  <PUBCHEM_SHAPE_VOLUME>  (1) 
207.1

>  <PUBCHEM_COORDINATE_TYPE>  (1) 
2
5
10

$$$$
