9036
     RDKit          3D

 21 24  0  0  1  0  0  0  0  0999 V2000
    4.9254    0.6206   -0.4886 O   0  0  0  0  0  0  0  0  0  0  0  0
   -2.3481    0.5572   -1.2211 N   0  0  0  0  0  0  0  0  0  0  0  0
    0.2533   -1.0728   -0.6643 C   0  0  0  0  0  0  0  0  0  0  0  0
   -0.9454   -0.8428    0.2586 C   0  0  0  0  0  0  0  0  0  0  0  0
   -1.3445    0.5948   -0.1607 C   0  0  0  0  0  0  0  0  0  0  0  0
   -0.3376   -0.8863   -2.1454 C   0  0  0  0  0  0  0  0  0  0  0  0
    0.7600   -2.5206   -0.4580 C   0  0  0  0  0  0  0  0  0  0  0  0
   -0.6764   -1.1518    1.7430 C   0  0  0  0  0  0  0  0  0  0  0  0
    1.3098    0.0384   -0.2708 C   0  0  0  0  0  0  0  0  0  0  0  0
   -0.5836    1.6085    0.6823 C   0  0  0  0  0  0  0  0  0  0  0  0
   -1.9030   -0.5066   -2.2011 C   0  0  0  0  0  0  0  0  0  0  0  0
    1.0372   -2.8611    1.0106 C   0  0  0  0  0  0  0  0  0  0  0  0
   -0.1755   -2.5881    1.8988 C   0  0  0  0  0  0  0  0  0  0  0  0
    0.9168    1.2554    0.4266 C   0  0  0  0  0  0  0  0  0  0  0  0
   -3.6985    0.3452   -0.7277 C   0  0  0  0  0  0  0  0  0  0  0  0
    2.6641   -0.1336   -0.5848 C   0  0  0  0  0  0  0  0  0  0  0  0
    1.8867    2.1817    0.8240 C   0  0  0  0  0  0  0  0  0  0  0  0
    3.6108    0.8141   -0.1858 C   0  0  0  0  0  0  0  0  0  0  0  0
    3.2276    1.9546    0.5221 C   0  0  0  0  0  0  0  0  0  0  0  0
   -4.1069    1.4144    0.2386 C   0  0  0  0  0  0  0  0  0  0  0  0
   -4.4723    1.1789    1.5038 C   0  0  0  0  0  0  0  0  0  0  0  0
  1 18  1  0
  2  5  1  0
  2 11  1  0
  2 15  1  0
  3  4  1  0
  3  6  1  0
  3  7  1  0
  3  9  1  0
  4  5  1  0
  4  8  1  0
  5 10  1  0
  6 11  1  0
  7 12  1  0
  8 13  1  0
  9 14  2  0
  9 16  1  0
 10 14  1  0
 12 13  1  0
 14 17  1  0
 15 20  1  0
 16 18  2  0
 17 19  2  0
 18 19  1  0
 20 21  2  0
M  END
>  <PUBCHEM_COMPOUND_CID>  (1) 
9036

>  <PUBCHEM_CONFORMER_RMSD>  (1) 
0.6

>  <PUBCHEM_CONFORMER_DIVERSEORDER>  (1) 
1
3
2
4
5
6

>  <PUBCHEM_MMFF94_PARTIAL_CHARGES>  (1) 
22
1 -0.53
10 0.14
11 0.27
14 -0.14
15 0.41
16 -0.15
17 -0.15
18 0.08
19 -0.15
2 -0.81
20 -0.29
21 -0.3
3 0.14
40 0.15
41 0.15
42 0.15
43 0.15
44 0.45
45 0.15
46 0.15
5 0.27
9 -0.14

>  <PUBCHEM_EFFECTIVE_ROTOR_COUNT>  (1) 
3.6

>  <PUBCHEM_PHARMACOPHORE_FEATURES>  (1) 
7
1 1 donor
1 2 cation
1 21 hydrophobe
6 2 3 4 5 6 11 rings
6 3 4 5 9 10 14 rings
6 3 4 7 8 12 13 rings
6 9 14 16 17 18 19 rings

>  <PUBCHEM_HEAVY_ATOM_COUNT>  (1) 
21

>  <PUBCHEM_ATOM_DEF_STEREO_COUNT>  (1) 
3

>  <PUBCHEM_ATOM_UDEF_STEREO_COUNT>  (1) 
0

>  <PUBCHEM_BOND_DEF_STEREO_COUNT>  (1) 
0

>  <PUBCHEM_BOND_UDEF_STEREO_COUNT>  (1) 
0

>  <PUBCHEM_ISOTOPIC_ATOM_COUNT>  (1) 
0

>  <PUBCHEM_COMPONENT_COUNT>  (1) 
1

>  <PUBCHEM_CACTVS_TAUTO_COUNT>  (1) 
3

>  <PUBCHEM_CONFORMER_ID>  (1) 
0000234C00000001

>  <PUBCHEM_MMFF94_ENERGY>  (1) 
133.7041

>  <PUBCHEM_FEATURE_SELFOVERLAP>  (1) 
36.399

>  <PUBCHEM_SHAPE_FINGERPRINT>  (1) 
10165383 225 17968388887346379164
10382601 240 18269565952896731713
10863032 1 18411416236891785639
10906281 52 18201168740995857048
10922049 32 18409730694287877153
10948715 1 18343302595447029589
11315181 36 15913054270411547780
12423570 1 13369590699795533611
12491281 212 17988356082905069725
12592029 89 17917438613663399455
12644460 14 18270403767982529625
12788726 201 17618202349255606210
13004483 165 8357168534957355325
13140716 1 18341325690720424184
133893 2 17391869796402291291
13464514 151 18339647728702339265
13544653 18 8070032185538694661
13583140 156 18336266743991492061
14251751 93 17846775260852273295
14787075 74 18338521953729278273
14817 1 16177898728891172278
14955137 171 18054219934754993090
15295992 7 18340207504812254480
16945 1 18341319003398048933
1813 80 17624687956100198350
18186145 218 18339067272356990828
18769570 83 12966866601827912667
19765921 60 18409720747106728873
200 152 14692575433455520332
20905425 154 17980764831272994980
21041028 32 17906449931140971832
21120745 212 16606035388451770658
21330990 113 17968105264849214235
21421861 104 17975984163273588105
21524375 3 18410849988376815181
22112679 90 17771876421003755351
23352939 185 16053250587590183198
23419403 2 17902551170236198555
23493267 7 17846778512068961991
23558518 356 18052529169085659084
23559900 14 14708326894942545867
25 1 18411134727607876388
2748010 2 17766842002616818524
298252 57 17703790335942836199
34934 24 18200875063542129473
3759504 43 18187932828172293620
394222 165 18201155468850093491
404807 14 15260910563260213942
427121 178 18041011609075947723
4340502 62 18187375294446861537
458136 41 18113904818665416467
46194498 28 11095583552270477313
474 4 18411701002051036249
495365 180 17461698629542831389
5845 1 16613567210499602987
5895379 119 16981813377622537977
6138700 20 18269277868418792694
633830 44 18341609334518553644
6442390 28 18188218701058690523
81228 2 17391907445948198411
9981440 41 16836535357005175176
9999458 23 18335426759229304485

>  <PUBCHEM_SHAPE_MULTIPOLES>  (1) 
421.32
6.36
2.72
1.78
1.08
1.38
-0.28
-4.84
0.11
-1.09
1.31
1.08
0.85
-0.24

>  <PUBCHEM_SHAPE_SELFOVERLAP>  (1) 
904.053

>  <PUBCHEM_SHAPE_VOLUME>  (1) 
231.1

>  <PUBCHEM_COORDINATE_TYPE>  (1) 
2
5
10

$$$$
