9079
     RDKit          3D

 11 11  0  0  0  0  0  0  0  0999 V2000
    3.7775   -0.0186    0.1700 N   0  0  0  0  0  0  0  0  0  0  0  0
    4.6045    0.0102   -0.9925 N   0  0  0  0  0  0  0  0  0  0  0  0
    1.4268    0.0029    0.9379 C   0  0  0  0  0  0  0  0  0  0  0  0
   -0.0058    0.0018    0.5233 C   0  0  0  0  0  0  0  0  0  0  0  0
    2.3839    0.0060   -0.2611 C   0  0  0  0  0  0  0  0  0  0  0  0
   -0.6778    1.2090    0.3311 C   0  0  0  0  0  0  0  0  0  0  0  0
   -0.6739   -1.2070    0.3276 C   0  0  0  0  0  0  0  0  0  0  0  0
   -2.6857   -0.0011   -0.2521 C   0  0  0  0  0  0  0  0  0  0  0  0
   -2.0177    1.2076   -0.0565 C   0  0  0  0  0  0  0  0  0  0  0  0
   -2.0139   -1.2084   -0.0601 C   0  0  0  0  0  0  0  0  0  0  0  0
   -4.1179   -0.0025   -0.6675 C   0  0  0  0  0  0  0  0  0  0  0  0
  1  2  1  0
  1  5  1  0
  3  4  1  0
  3  5  1  0
  4  6  2  0
  4  7  1  0
  6  9  1  0
  7 10  2  0
  8  9  2  0
  8 10  1  0
  8 11  1  0
M  END
>  <PUBCHEM_COMPOUND_CID>  (1) 
9079

>  <PUBCHEM_CONFORMER_RMSD>  (1) 
0.6

>  <PUBCHEM_CONFORMER_DIVERSEORDER>  (1) 
1
6
3
4
2
5

>  <PUBCHEM_MMFF94_PARTIAL_CHARGES>  (1) 
18
1 -0.63
10 -0.15
11 0.14
16 0.15
17 0.15
18 0.15
19 0.15
2 -0.72
20 0.36
24 0.36
25 0.36
3 0.14
4 -0.14
5 0.27
6 -0.15
7 -0.15
8 -0.14
9 -0.15

>  <PUBCHEM_EFFECTIVE_ROTOR_COUNT>  (1) 
3

>  <PUBCHEM_PHARMACOPHORE_FEATURES>  (1) 
3
1 1 donor
1 2 donor
6 4 6 7 8 9 10 rings

>  <PUBCHEM_HEAVY_ATOM_COUNT>  (1) 
11

>  <PUBCHEM_ATOM_DEF_STEREO_COUNT>  (1) 
0

>  <PUBCHEM_ATOM_UDEF_STEREO_COUNT>  (1) 
0

>  <PUBCHEM_BOND_DEF_STEREO_COUNT>  (1) 
0

>  <PUBCHEM_BOND_UDEF_STEREO_COUNT>  (1) 
0

>  <PUBCHEM_ISOTOPIC_ATOM_COUNT>  (1) 
0

>  <PUBCHEM_COMPONENT_COUNT>  (1) 
1

>  <PUBCHEM_CACTVS_TAUTO_COUNT>  (1) 
1

>  <PUBCHEM_CONFORMER_ID>  (1) 
0000237700000001

>  <PUBCHEM_MMFF94_ENERGY>  (1) 
19.1709

>  <PUBCHEM_FEATURE_SELFOVERLAP>  (1) 
16.548

>  <PUBCHEM_SHAPE_FINGERPRINT>  (1) 
11062470 55 14562527362590181805
12032990 46 18270397317063197531
12119455 92 13695860441672842227
13024252 1 17530687619328491331
14911166 2 18411128152482288797
14993402 34 18114177540635765573
15775835 57 17312820476668764182
16945 1 18338499903314296827
200 152 16343703222754563134
20201158 50 17917714599719397966
20279233 1 17918273169207058402
20645476 183 17821726160857216691
20871999 31 18263359351407499823
21119208 17 18259704501741802196
21293036 1 18335415768576434973
22485316 2 16343698833361257798
22926399 37 16950285113186003044
23402539 116 18342730793423775013
23559900 14 18341891918524864624
2748010 2 18049706714663954435
528716 315 18335425685513548610

>  <PUBCHEM_SHAPE_MULTIPOLES>  (1) 
216.41
7.01
1.16
0.86
5.78
0
-0.01
-0.01
-2.73
-0.7
0.08
0.33
0
0

>  <PUBCHEM_SHAPE_SELFOVERLAP>  (1) 
434.241

>  <PUBCHEM_SHAPE_VOLUME>  (1) 
127.8

>  <PUBCHEM_COORDINATE_TYPE>  (1) 
2
5
10

$$$$
