9088
     RDKit          3D

  5  6  0  0  0  0  0  0  0  0999 V2000
    0.0000    0.0000    0.0000 C   0  0  0  0  0  0  0  0  0  0  0  0
    1.2415    0.5652   -0.5178 C   0  0  0  0  0  0  0  0  0  0  0  0
   -1.2415   -0.5181   -0.5649 C   0  0  0  0  0  0  0  0  0  0  0  0
   -1.2415    0.5181    0.5649 C   0  0  0  0  0  0  0  0  0  0  0  0
    1.2415   -0.5652    0.5178 C   0  0  0  0  0  0  0  0  0  0  0  0
  1  2  1  0
  1  3  1  0
  1  4  1  0
  1  5  1  0
  2  5  1  0
  3  4  1  0
M  END
>  <PUBCHEM_COMPOUND_CID>  (1) 
9088

>  <PUBCHEM_CONFORMER_RMSD>  (1) 
0.4

>  <PUBCHEM_CONFORMER_DIVERSEORDER>  (1) 
1

>  <PUBCHEM_MMFF94_PARTIAL_CHARGES>  (1) 
12
10 0.1
11 0.1
12 0.1
13 0.1
2 -0.2
3 -0.2
4 -0.2
5 -0.2
6 0.1
7 0.1
8 0.1
9 0.1

>  <PUBCHEM_EFFECTIVE_ROTOR_COUNT>  (1) 
0.8

>  <PUBCHEM_PHARMACOPHORE_FEATURES>  (1) 
0

>  <PUBCHEM_HEAVY_ATOM_COUNT>  (1) 
5

>  <PUBCHEM_ATOM_DEF_STEREO_COUNT>  (1) 
0

>  <PUBCHEM_ATOM_UDEF_STEREO_COUNT>  (1) 
0

>  <PUBCHEM_BOND_DEF_STEREO_COUNT>  (1) 
0

>  <PUBCHEM_BOND_UDEF_STEREO_COUNT>  (1) 
0

>  <PUBCHEM_ISOTOPIC_ATOM_COUNT>  (1) 
0

>  <PUBCHEM_COMPONENT_COUNT>  (1) 
1

>  <PUBCHEM_CACTVS_TAUTO_COUNT>  (1) 
1

>  <PUBCHEM_CONFORMER_ID>  (1) 
0000238000000001

>  <PUBCHEM_MMFF94_ENERGY>  (1) 
19.2221

>  <PUBCHEM_FEATURE_SELFOVERLAP>  (1) 
0

>  <PUBCHEM_SHAPE_FINGERPRINT>  (1) 
20096714 4 18337122227639322572
21015797 1 9078852778260987008
21040471 1 17488192482578176353
24536 1 18410854364911579266
29004967 10 17313387781708461208
5943 1 9905665761198735376

>  <PUBCHEM_SHAPE_MULTIPOLES>  (1) 
102.9
1.85
0.85
0.85
0
0
0
0
0
0.01
0
-0.01
0
-0.29

>  <PUBCHEM_SHAPE_SELFOVERLAP>  (1) 
202.74

>  <PUBCHEM_SHAPE_VOLUME>  (1) 
65.2

>  <PUBCHEM_COORDINATE_TYPE>  (1) 
2
5
10

$$$$
