9091
     RDKit          3D

 10 11  0  0  0  0  0  0  0  0999 V2000
    2.8943    0.0205   -0.7000 S   0  0  0  0  0  0  0  0  0  0  0  0
    2.3869   -0.8899    1.0615 S   0  0  0  0  0  0  0  0  0  0  0  0
    0.2346    0.3542   -0.1071 C   0  0  0  0  0  0  0  0  0  0  0  0
   -0.9002    1.3951    0.0757 C   0  0  0  0  0  0  0  0  0  0  0  0
   -0.3266   -0.8403   -0.9300 C   0  0  0  0  0  0  0  0  0  0  0  0
   -2.1733    0.8021    0.6770 C   0  0  0  0  0  0  0  0  0  0  0  0
   -1.6117   -1.4330   -0.3496 C   0  0  0  0  0  0  0  0  0  0  0  0
    1.4031    1.0397   -0.8569 C   0  0  0  0  0  0  0  0  0  0  0  0
    0.7789   -0.0769    1.2773 C   0  0  0  0  0  0  0  0  0  0  0  0
   -2.6860   -0.3716   -0.1479 C   0  0  0  0  0  0  0  0  0  0  0  0
  1  2  1  0
  1  8  1  0
  2  9  1  0
  3  4  1  0
  3  5  1  0
  3  8  1  0
  3  9  1  0
  4  6  1  0
  5  7  1  0
  6 10  1  0
  7 10  1  0
M  END
>  <PUBCHEM_COMPOUND_CID>  (1) 
9091

>  <PUBCHEM_CONFORMER_RMSD>  (1) 
0.4

>  <PUBCHEM_CONFORMER_DIVERSEORDER>  (1) 
2
1
3
4

>  <PUBCHEM_MMFF94_PARTIAL_CHARGES>  (1) 
4
1 -0.23
2 -0.23
8 0.23
9 0.23

>  <PUBCHEM_EFFECTIVE_ROTOR_COUNT>  (1) 
1.8

>  <PUBCHEM_PHARMACOPHORE_FEATURES>  (1) 
2
5 1 2 3 8 9 rings
6 3 4 5 6 7 10 rings

>  <PUBCHEM_HEAVY_ATOM_COUNT>  (1) 
10

>  <PUBCHEM_ATOM_DEF_STEREO_COUNT>  (1) 
0

>  <PUBCHEM_ATOM_UDEF_STEREO_COUNT>  (1) 
0

>  <PUBCHEM_BOND_DEF_STEREO_COUNT>  (1) 
0

>  <PUBCHEM_BOND_UDEF_STEREO_COUNT>  (1) 
0

>  <PUBCHEM_ISOTOPIC_ATOM_COUNT>  (1) 
0

>  <PUBCHEM_COMPONENT_COUNT>  (1) 
1

>  <PUBCHEM_CACTVS_TAUTO_COUNT>  (1) 
1

>  <PUBCHEM_CONFORMER_ID>  (1) 
0000238300000002

>  <PUBCHEM_MMFF94_ENERGY>  (1) 
16.6767

>  <PUBCHEM_FEATURE_SELFOVERLAP>  (1) 
10.153

>  <PUBCHEM_SHAPE_FINGERPRINT>  (1) 
10857977 72 17703787041718698641
12423570 1 14761200351748302721
12716758 59 17774449278117714466
12932764 1 18260551116957854276
14128692 85 18335416906690020866
14993402 34 18408604742725421701
15310529 11 17458061560345926389
15775835 57 18261402130325678772
16945 1 18341894056479600460
20645464 45 16987982951908163746
207724 885 18334579018526098655
21040471 1 18058736792930055601
23235685 24 18201725003146790497
23552423 10 18190180285288746108
29004967 10 16081088177453273124
369184 2 17676206857545402260
5084963 1 17917998265044844997
68250623 7 18119830241419709846

>  <PUBCHEM_SHAPE_MULTIPOLES>  (1) 
213.49
3.98
1.37
1.19
0.5
0.02
0.15
-0.46
0
-0.23
-0.07
0.41
-0.12
-0.7

>  <PUBCHEM_SHAPE_SELFOVERLAP>  (1) 
404.931

>  <PUBCHEM_SHAPE_VOLUME>  (1) 
129.6

>  <PUBCHEM_COORDINATE_TYPE>  (1) 
2
5
10

$$$$
