9097
     RDKit          3D

 12 13  0  0  0  0  0  0  0  0999 V2000
   -0.2750   -0.2284   -0.2005 C   0  0  0  0  0  0  0  0  0  0  0  0
   -1.1858    0.4245   -1.2813 C   0  0  0  0  0  0  0  0  0  0  0  0
   -1.1434   -1.2093    0.6390 C   0  0  0  0  0  0  0  0  0  0  0  0
    0.3270    0.8505    0.7432 C   0  0  0  0  0  0  0  0  0  0  0  0
    0.8196   -1.0396   -0.9495 C   0  0  0  0  0  0  0  0  0  0  0  0
   -2.4805    1.0327   -0.7395 C   0  0  0  0  0  0  0  0  0  0  0  0
   -2.4082   -0.5684    1.2095 C   0  0  0  0  0  0  0  0  0  0  0  0
    1.5498    1.5996    0.2077 C   0  0  0  0  0  0  0  0  0  0  0  0
    2.0452   -1.4322   -0.1231 C   0  0  0  0  0  0  0  0  0  0  0  0
   -3.2668    0.0409    0.1083 C   0  0  0  0  0  0  0  0  0  0  0  0
    2.8652    0.9114    0.5703 C   0  0  0  0  0  0  0  0  0  0  0  0
    3.1529   -0.3817   -0.1841 C   0  0  0  0  0  0  0  0  0  0  0  0
  1  2  1  0
  1  3  1  0
  1  4  1  0
  1  5  1  0
  2  6  1  0
  3  7  1  0
  4  8  1  0
  5  9  1  0
  6 10  1  0
  7 10  1  0
  8 11  1  0
  9 12  1  0
 11 12  1  0
M  END
>  <PUBCHEM_COMPOUND_CID>  (1) 
9097

>  <PUBCHEM_CONFORMER_RMSD>  (1) 
0.6

>  <PUBCHEM_CONFORMER_DIVERSEORDER>  (1) 
1
2
3
4

>  <PUBCHEM_MMFF94_PARTIAL_CHARGES>  (1) 
0

>  <PUBCHEM_EFFECTIVE_ROTOR_COUNT>  (1) 
2.2

>  <PUBCHEM_PHARMACOPHORE_FEATURES>  (1) 
2
6 1 2 3 6 7 10 rings
7 1 4 5 8 9 11 12 rings

>  <PUBCHEM_HEAVY_ATOM_COUNT>  (1) 
12

>  <PUBCHEM_ATOM_DEF_STEREO_COUNT>  (1) 
0

>  <PUBCHEM_ATOM_UDEF_STEREO_COUNT>  (1) 
0

>  <PUBCHEM_BOND_DEF_STEREO_COUNT>  (1) 
0

>  <PUBCHEM_BOND_UDEF_STEREO_COUNT>  (1) 
0

>  <PUBCHEM_ISOTOPIC_ATOM_COUNT>  (1) 
0

>  <PUBCHEM_COMPONENT_COUNT>  (1) 
1

>  <PUBCHEM_CACTVS_TAUTO_COUNT>  (1) 
1

>  <PUBCHEM_CONFORMER_ID>  (1) 
0000238900000001

>  <PUBCHEM_MMFF94_ENERGY>  (1) 
24.7296

>  <PUBCHEM_FEATURE_SELFOVERLAP>  (1) 
10.149

>  <PUBCHEM_SHAPE_FINGERPRINT>  (1) 
10219947 1 17988645172811160982
10608611 8 18335415772671377533
10857977 72 17676211290262862191
11031198 65 18343022215724058732
12138202 97 18040702676125569111
12423570 1 14109153578235772591
124424 183 18188481389784858762
12491281 212 15698010668541268914
12716758 59 17749670671315866243
12932764 1 18408608058398274782
13581323 91 17312820485100443147
13839132 238 18041551434756882525
14993402 34 16845853485836829669
15219456 202 18408040718972186321
15775835 57 17132113575843299816
16945 1 18410574002420991156
17844478 74 18260835899159512105
18175812 5 18261113005938055615
18186145 218 18264769861500692957
19049666 15 18189612735419978385
20201158 50 18410293584022306442
20645464 45 18260260858851871753
21501502 16 18338515377606963847
23402539 116 18114731720730231167
2748010 2 17841431432451451580
369184 2 18411980252086578775
5084963 1 18128808823365386235
528862 383 18272650160152937570
528886 8 18060692905598896018
53812653 166 18115025195550057041
63268167 104 17846774117969037544
77492 1 16630806599403408463

>  <PUBCHEM_SHAPE_MULTIPOLES>  (1) 
246.95
4.86
1.49
1.11
0.04
0.05
-0.06
0.29
0.41
0.57
0.04
-0.44
-0.02
0.72

>  <PUBCHEM_SHAPE_SELFOVERLAP>  (1) 
490.148

>  <PUBCHEM_SHAPE_VOLUME>  (1) 
143.5

>  <PUBCHEM_COORDINATE_TYPE>  (1) 
2
5
10

$$$$
