9100
     RDKit          3D

  8  9  0  0  0  0  0  0  0  0999 V2000
   -2.1297    0.0000    0.5008 O   0  0  0  0  0  0  0  0  0  0  0  0
   -0.7573    0.0000    0.0850 C   0  0  0  0  0  0  0  0  0  0  0  0
   -0.0257   -1.2718    0.3997 C   0  0  0  0  0  0  0  0  0  0  0  0
   -0.0257    1.2716    0.3997 C   0  0  0  0  0  0  0  0  0  0  0  0
   -1.8904    0.0001   -0.9141 C   0  0  0  0  0  0  0  0  0  0  0  0
    1.3469   -1.2656   -0.2726 C   0  0  0  0  0  0  0  0  0  0  0  0
    1.3467    1.2657   -0.2725 C   0  0  0  0  0  0  0  0  0  0  0  0
    2.1351    0.0000    0.0739 C   0  0  0  0  0  0  0  0  0  0  0  0
  1  2  1  0
  1  5  1  0
  2  3  1  0
  2  4  1  0
  2  5  1  0
  3  6  1  0
  4  7  1  0
  6  8  1  0
  7  8  1  0
M  END
>  <PUBCHEM_COMPOUND_CID>  (1) 
9100

>  <PUBCHEM_CONFORMER_RMSD>  (1) 
0.4

>  <PUBCHEM_CONFORMER_DIVERSEORDER>  (1) 
1
2
3
4

>  <PUBCHEM_MMFF94_PARTIAL_CHARGES>  (1) 
7
1 -0.3
13 0.1
14 0.1
2 -0.04
3 0.09
4 0.09
5 -0.05

>  <PUBCHEM_EFFECTIVE_ROTOR_COUNT>  (1) 
1.4

>  <PUBCHEM_PHARMACOPHORE_FEATURES>  (1) 
2
1 1 acceptor
6 2 3 4 6 7 8 rings

>  <PUBCHEM_HEAVY_ATOM_COUNT>  (1) 
8

>  <PUBCHEM_ATOM_DEF_STEREO_COUNT>  (1) 
0

>  <PUBCHEM_ATOM_UDEF_STEREO_COUNT>  (1) 
0

>  <PUBCHEM_BOND_DEF_STEREO_COUNT>  (1) 
0

>  <PUBCHEM_BOND_UDEF_STEREO_COUNT>  (1) 
0

>  <PUBCHEM_ISOTOPIC_ATOM_COUNT>  (1) 
0

>  <PUBCHEM_COMPONENT_COUNT>  (1) 
1

>  <PUBCHEM_CACTVS_TAUTO_COUNT>  (1) 
1

>  <PUBCHEM_CONFORMER_ID>  (1) 
0000238C00000001

>  <PUBCHEM_MMFF94_ENERGY>  (1) 
4.2525

>  <PUBCHEM_FEATURE_SELFOVERLAP>  (1) 
10.148

>  <PUBCHEM_SHAPE_FINGERPRINT>  (1) 
15310529 11 16660364800805588524
18185500 45 18271803488759653078
20096714 4 18337674221183685426
21040471 1 18194120939458141928
23235685 24 18410295851917967528
23552423 10 18191596246033632414
241688 4 17905895777544277928
24536 1 18409729564537411584
29004967 10 18408889511883980522
5084963 1 17968093191495450855

>  <PUBCHEM_SHAPE_MULTIPOLES>  (1) 
158.77
2.62
1.44
0.8
0.35
0
-0.07
0
-0.27
-0.51
0.05
0.21
0
0

>  <PUBCHEM_SHAPE_SELFOVERLAP>  (1) 
317.08

>  <PUBCHEM_SHAPE_VOLUME>  (1) 
94.4

>  <PUBCHEM_COORDINATE_TYPE>  (1) 
2
5
10

$$$$
