9104
     RDKit          3D

 32 39  0  0  0  0  0  0  0  0999 V2000
    0.7155   -0.9453   -0.0001 C   0  0  0  0  0  0  0  0  0  0  0  0
   -0.7155   -0.9452   -0.0005 C   0  0  0  0  0  0  0  0  0  0  0  0
    1.4517    0.2660   -0.0002 C   0  0  0  0  0  0  0  0  0  0  0  0
   -1.4517    0.2661   -0.0008 C   0  0  0  0  0  0  0  0  0  0  0  0
    1.4079   -2.1769    0.0006 C   0  0  0  0  0  0  0  0  0  0  0  0
   -1.4079   -2.1770   -0.0005 C   0  0  0  0  0  0  0  0  0  0  0  0
    2.8919    0.2363    0.0003 C   0  0  0  0  0  0  0  0  0  0  0  0
   -2.8920    0.2363   -0.0007 C   0  0  0  0  0  0  0  0  0  0  0  0
    3.5519   -1.0126    0.0010 C   0  0  0  0  0  0  0  0  0  0  0  0
   -3.5520   -1.0127   -0.0010 C   0  0  0  0  0  0  0  0  0  0  0  0
    0.6994    1.4544   -0.0007 C   0  0  0  0  0  0  0  0  0  0  0  0
   -0.6994    1.4543   -0.0010 C   0  0  0  0  0  0  0  0  0  0  0  0
    2.8052   -2.1942    0.0012 C   0  0  0  0  0  0  0  0  0  0  0  0
   -2.8053   -2.1942   -0.0011 C   0  0  0  0  0  0  0  0  0  0  0  0
    0.6952   -3.3795    0.0007 C   0  0  0  0  0  0  0  0  0  0  0  0
   -0.6952   -3.3795    0.0001 C   0  0  0  0  0  0  0  0  0  0  0  0
    3.7187    1.3908    0.0000 C   0  0  0  0  0  0  0  0  0  0  0  0
   -3.7186    1.3907    0.0000 C   0  0  0  0  0  0  0  0  0  0  0  0
    4.9567   -1.0832    0.0011 C   0  0  0  0  0  0  0  0  0  0  0  0
   -4.9567   -1.0832   -0.0010 C   0  0  0  0  0  0  0  0  0  0  0  0
    5.1254    1.3273    0.0003 C   0  0  0  0  0  0  0  0  0  0  0  0
   -5.1254    1.3273    0.0004 C   0  0  0  0  0  0  0  0  0  0  0  0
    5.7531    0.0694    0.0006 C   0  0  0  0  0  0  0  0  0  0  0  0
   -5.7531    0.0695   -0.0004 C   0  0  0  0  0  0  0  0  0  0  0  0
    5.9176    2.4887   -0.0003 C   0  0  0  0  0  0  0  0  0  0  0  0
   -5.9176    2.4887    0.0014 C   0  0  0  0  0  0  0  0  0  0  0  0
    7.1568   -0.0029    0.0000 C   0  0  0  0  0  0  0  0  0  0  0  0
   -7.1568   -0.0028   -0.0001 C   0  0  0  0  0  0  0  0  0  0  0  0
    7.3102    2.4036   -0.0007 C   0  0  0  0  0  0  0  0  0  0  0  0
   -7.3100    2.4036    0.0014 C   0  0  0  0  0  0  0  0  0  0  0  0
    7.9295    1.1582   -0.0008 C   0  0  0  0  0  0  0  0  0  0  0  0
   -7.9295    1.1582    0.0008 C   0  0  0  0  0  0  0  0  0  0  0  0
  1  2  2  0
  1  3  1  0
  1  5  1  0
  2  4  1  0
  2  6  1  0
  3  7  1  0
  3 11  2  0
  4  8  1  0
  4 12  2  0
  5 13  2  0
  5 15  1  0
  6 14  2  0
  6 16  1  0
  7  9  2  0
  7 17  1  0
  8 10  2  0
  8 18  1  0
  9 13  1  0
  9 19  1  0
 10 14  1  0
 10 20  1  0
 11 12  1  0
 15 16  2  0
 17 21  2  0
 18 22  2  0
 19 23  2  0
 20 24  2  0
 21 23  1  0
 21 25  1  0
 22 24  1  0
 22 26  1  0
 23 27  1  0
 24 28  1  0
 25 29  2  0
 26 30  2  0
 27 31  2  0
 28 32  2  0
 29 31  1  0
 30 32  1  0
M  END
>  <PUBCHEM_COMPOUND_CID>  (1) 
9104

>  <PUBCHEM_CONFORMER_RMSD>  (1) 
0.6

>  <PUBCHEM_CONFORMER_DIVERSEORDER>  (1) 
1

>  <PUBCHEM_MMFF94_PARTIAL_CHARGES>  (1) 
36
11 -0.15
12 -0.15
13 -0.15
14 -0.15
15 -0.15
16 -0.15
17 -0.15
18 -0.15
19 -0.15
20 -0.15
25 -0.15
26 -0.15
27 -0.15
28 -0.15
29 -0.15
30 -0.15
31 -0.15
32 -0.15
33 0.15
34 0.15
35 0.15
36 0.15
37 0.15
38 0.15
39 0.15
40 0.15
41 0.15
42 0.15
43 0.15
44 0.15
45 0.15
46 0.15
47 0.15
48 0.15
49 0.15
50 0.15

>  <PUBCHEM_EFFECTIVE_ROTOR_COUNT>  (1) 
0

>  <PUBCHEM_PHARMACOPHORE_FEATURES>  (1) 
8
6 1 2 3 4 11 12 rings
6 1 2 5 6 15 16 rings
6 1 3 5 7 9 13 rings
6 2 4 6 8 10 14 rings
6 21 23 25 27 29 31 rings
6 22 24 26 28 30 32 rings
6 7 9 17 19 21 23 rings
6 8 10 18 20 22 24 rings

>  <PUBCHEM_HEAVY_ATOM_COUNT>  (1) 
32

>  <PUBCHEM_ATOM_DEF_STEREO_COUNT>  (1) 
0

>  <PUBCHEM_ATOM_UDEF_STEREO_COUNT>  (1) 
0

>  <PUBCHEM_BOND_DEF_STEREO_COUNT>  (1) 
0

>  <PUBCHEM_BOND_UDEF_STEREO_COUNT>  (1) 
0

>  <PUBCHEM_ISOTOPIC_ATOM_COUNT>  (1) 
0

>  <PUBCHEM_COMPONENT_COUNT>  (1) 
1

>  <PUBCHEM_CACTVS_TAUTO_COUNT>  (1) 
1

>  <PUBCHEM_CONFORMER_ID>  (1) 
0000239000000001

>  <PUBCHEM_MMFF94_ENERGY>  (1) 
124.4624

>  <PUBCHEM_FEATURE_SELFOVERLAP>  (1) 
40.823

>  <PUBCHEM_SHAPE_FINGERPRINT>  (1) 
10 15 18186522103177404425
10050765 1 18050568443548388549
10165383 225 18410573985157135157
10190206 1 18199451325076116831
10280341 67 18056751256190370800
10835480 77 18263077722508409301
10906281 52 18410866459539816110
11007060 377 18338520849648656483
11135609 187 18412262818349155305
11135926 11 18336536153624282047
11136131 41 18188767224175124083
11719270 70 18341326704475338410
12013929 112 18189639232428846670
12013929 29 17691681191961606189
12539765 74 18131641057886450358
12788726 201 17560523897755482800
12838862 33 18338781373416031585
12925494 130 18268424814672971160
13248334 5 18122062001012295106
14117953 113 18408327679324105500
14394314 77 18412268299034003593
14790565 3 18410577287981379716
14849402 71 18413673517801614025
15183329 4 18343302560955741097
15289351 153 18342171112473163952
15400415 2 18410573989446470407
15461852 350 17703504480832771909
1577012 14 18411131441842084207
15840311 113 18335143055090396103
15849732 13 18186521020434358237
15890870 6 18410856563934769856
15927050 60 18410571807762541411
16087824 20 18409449163387739508
16758388 162 18261663810531391240
16989713 51 17344899935955109295
16992610 120 18261125101784669996
18608769 82 18338520854503000563
18681886 176 18412256272935027753
19053607 189 18268134367498997569
19611394 137 17896615062483357907
20554085 129 17988629801635146058
20642791 178 18042415796698388412
20715895 44 18410576202061451164
21033648 144 18261104146338623655
21033648 29 18270107041714419624
21298829 104 18410294709414741741
23559900 14 18200305658031427064
24771293 8 18335422382715704421
3178227 256 18337403711802015377
335352 9 18411140226010125286
3411729 13 18335981973873006371
350125 39 18410291402163089260
3633792 109 18272094850941048288
4073 2 18114467845939006914
4093350 32 17489308547221031534
4169191 19 18411698747725975309
5080951 261 16515684503141576515
5104073 3 18186803564873893091
5171179 24 17485354909096279483
5265222 85 18268432524017356640
5758199 1 18412827971546796785
5776283 40 18342457092349017768
58260988 393 15647043833606886284
6009941 240 17676773144894206553
6086070 43 17274817008121345210
6328613 192 18412826884719799249
99344 41 18410011026703300700
9961470 85 18054220205153979304

>  <PUBCHEM_SHAPE_MULTIPOLES>  (1) 
658.54
21.54
3.32
0.62
0
1.48
0
-17.8
0
0
0
0
0
0

>  <PUBCHEM_SHAPE_SELFOVERLAP>  (1) 
1571.481

>  <PUBCHEM_SHAPE_VOLUME>  (1) 
293.8

>  <PUBCHEM_COORDINATE_TYPE>  (1) 
2
5
10

$$$$
