9105
     RDKit          3D

 32 39  0  0  0  0  0  0  0  0999 V2000
    0.6854    0.2049   -0.0011 C   0  0  0  0  0  0  0  0  0  0  0  0
   -0.6854   -0.2049   -0.0013 C   0  0  0  0  0  0  0  0  0  0  0  0
    1.7472   -0.7421   -0.0009 C   0  0  0  0  0  0  0  0  0  0  0  0
   -1.7472    0.7421   -0.0012 C   0  0  0  0  0  0  0  0  0  0  0  0
    0.9867    1.5803   -0.0010 C   0  0  0  0  0  0  0  0  0  0  0  0
   -0.9868   -1.5803   -0.0014 C   0  0  0  0  0  0  0  0  0  0  0  0
    3.1148   -0.2898   -0.0003 C   0  0  0  0  0  0  0  0  0  0  0  0
   -3.1148    0.2898   -0.0009 C   0  0  0  0  0  0  0  0  0  0  0  0
    3.3783    1.0981   -0.0004 C   0  0  0  0  0  0  0  0  0  0  0  0
   -3.3783   -1.0981   -0.0010 C   0  0  0  0  0  0  0  0  0  0  0  0
    2.3175    2.0078   -0.0008 C   0  0  0  0  0  0  0  0  0  0  0  0
   -2.3175   -2.0078   -0.0014 C   0  0  0  0  0  0  0  0  0  0  0  0
    1.3814   -2.1037   -0.0013 C   0  0  0  0  0  0  0  0  0  0  0  0
   -1.3814    2.1037   -0.0011 C   0  0  0  0  0  0  0  0  0  0  0  0
   -0.0486    2.5142   -0.0011 C   0  0  0  0  0  0  0  0  0  0  0  0
    0.0486   -2.5143   -0.0016 C   0  0  0  0  0  0  0  0  0  0  0  0
    4.2451   -1.1496    0.0006 C   0  0  0  0  0  0  0  0  0  0  0  0
   -4.2451    1.1496   -0.0004 C   0  0  0  0  0  0  0  0  0  0  0  0
    4.7002    1.5790   -0.0003 C   0  0  0  0  0  0  0  0  0  0  0  0
   -4.7001   -1.5790   -0.0003 C   0  0  0  0  0  0  0  0  0  0  0  0
    5.5709   -0.6749    0.0012 C   0  0  0  0  0  0  0  0  0  0  0  0
   -5.5709    0.6749    0.0005 C   0  0  0  0  0  0  0  0  0  0  0  0
    5.8007    0.7119    0.0006 C   0  0  0  0  0  0  0  0  0  0  0  0
   -5.8006   -0.7119    0.0004 C   0  0  0  0  0  0  0  0  0  0  0  0
    6.6698   -1.5517    0.0022 C   0  0  0  0  0  0  0  0  0  0  0  0
   -6.6698    1.5517    0.0016 C   0  0  0  0  0  0  0  0  0  0  0  0
    7.1209    1.1941    0.0004 C   0  0  0  0  0  0  0  0  0  0  0  0
   -7.1208   -1.1942    0.0016 C   0  0  0  0  0  0  0  0  0  0  0  0
    7.9756   -1.0605    0.0023 C   0  0  0  0  0  0  0  0  0  0  0  0
   -7.9756    1.0605    0.0026 C   0  0  0  0  0  0  0  0  0  0  0  0
    8.2010    0.3119    0.0013 C   0  0  0  0  0  0  0  0  0  0  0  0
   -8.2010   -0.3120    0.0025 C   0  0  0  0  0  0  0  0  0  0  0  0
  1  2  2  0
  1  3  1  0
  1  5  1  0
  2  4  1  0
  2  6  1  0
  3  7  1  0
  3 13  2  0
  4  8  2  0
  4 14  1  0
  5 11  2  0
  5 15  1  0
  6 12  1  0
  6 16  2  0
  7  9  2  0
  7 17  1  0
  8 10  1  0
  8 18  1  0
  9 11  1  0
  9 19  1  0
 10 12  2  0
 10 20  1  0
 13 16  1  0
 14 15  2  0
 17 21  2  0
 18 22  2  0
 19 23  2  0
 20 24  2  0
 21 23  1  0
 21 25  1  0
 22 24  1  0
 22 26  1  0
 23 27  1  0
 24 28  1  0
 25 29  2  0
 26 30  2  0
 27 31  2  0
 28 32  2  0
 29 31  1  0
 30 32  1  0
M  END
>  <PUBCHEM_COMPOUND_CID>  (1) 
9105

>  <PUBCHEM_CONFORMER_RMSD>  (1) 
0.6

>  <PUBCHEM_CONFORMER_DIVERSEORDER>  (1) 
1

>  <PUBCHEM_MMFF94_PARTIAL_CHARGES>  (1) 
36
11 -0.15
12 -0.15
13 -0.15
14 -0.15
15 -0.15
16 -0.15
17 -0.15
18 -0.15
19 -0.15
20 -0.15
25 -0.15
26 -0.15
27 -0.15
28 -0.15
29 -0.15
30 -0.15
31 -0.15
32 -0.15
33 0.15
34 0.15
35 0.15
36 0.15
37 0.15
38 0.15
39 0.15
40 0.15
41 0.15
42 0.15
43 0.15
44 0.15
45 0.15
46 0.15
47 0.15
48 0.15
49 0.15
50 0.15

>  <PUBCHEM_EFFECTIVE_ROTOR_COUNT>  (1) 
0

>  <PUBCHEM_PHARMACOPHORE_FEATURES>  (1) 
8
6 1 2 3 6 13 16 rings
6 1 2 4 5 14 15 rings
6 1 3 5 7 9 11 rings
6 2 4 6 8 10 12 rings
6 21 23 25 27 29 31 rings
6 22 24 26 28 30 32 rings
6 7 9 17 19 21 23 rings
6 8 10 18 20 22 24 rings

>  <PUBCHEM_HEAVY_ATOM_COUNT>  (1) 
32

>  <PUBCHEM_ATOM_DEF_STEREO_COUNT>  (1) 
0

>  <PUBCHEM_ATOM_UDEF_STEREO_COUNT>  (1) 
0

>  <PUBCHEM_BOND_DEF_STEREO_COUNT>  (1) 
0

>  <PUBCHEM_BOND_UDEF_STEREO_COUNT>  (1) 
0

>  <PUBCHEM_ISOTOPIC_ATOM_COUNT>  (1) 
0

>  <PUBCHEM_COMPONENT_COUNT>  (1) 
1

>  <PUBCHEM_CACTVS_TAUTO_COUNT>  (1) 
1

>  <PUBCHEM_CONFORMER_ID>  (1) 
0000239100000001

>  <PUBCHEM_MMFF94_ENERGY>  (1) 
124.53

>  <PUBCHEM_FEATURE_SELFOVERLAP>  (1) 
40.823

>  <PUBCHEM_SHAPE_FINGERPRINT>  (1) 
10 15 18186803573911784835
10050765 1 18050286964149609856
100830 39 18410573942993874457
10299344 5 18408323289170838676
11135926 11 18410001127157462607
11315181 36 18131072637073017353
11524674 6 16917348151438547110
11578080 2 16807271524693390119
11719270 70 18272932709114572318
12107698 1 15719391737179154012
12133447 93 18270131097436296212
12166972 35 17894633664862446052
12838862 33 18338781373474125329
13402501 40 18410856563934756901
13811026 1 18412547599960151182
14117953 113 18409169900260748844
14118638 360 15913058564202476582
14251764 18 18410856572524691525
14394314 77 18270405975776114193
14849402 71 18341334491362166905
15131766 46 16083644675991611556
15183329 4 18410856555350097304
15347591 1 18118408585732947976
15439362 3 17972884940896617716
15461852 350 17132108066212421749
15840311 113 18113340838610967108
15849732 13 18410012143299599181
16087824 20 18337671907104486317
18608769 82 18410571794723404959
18681886 176 18343294903630068731
19611394 137 17897178012468635571
20721686 56 18336551529728767675
21033648 29 17987220291804518170
21057603 40 14273725228156498920
21267235 1 18410015441834482024
21792934 111 18341602716786204040
21792961 116 18114171999943331054
22311459 1 18410856551070960480
23522609 53 18194433093761814112
23559900 14 18341887558342385696
23569917 315 18412271639785512111
24771293 8 18272097067229017153
24893992 56 18334013930686838131
249057 3 18410575106137915604
3004659 81 18259983786501774912
3103668 31 18114739309337135540
3178227 256 18336840761779905323
335352 9 18410574002331320717
3383291 50 18409166644633782130
350125 39 18410291406716610388
4017518 198 17346604079566186486
4073 2 17968663833783305378
4093350 32 17131838616384803030
59755656 215 18410014312300638686
59755656 520 17458059391393379715
6009941 240 17531251681436083603
6138700 20 18409167705674559923
6691757 9 16415204520440458679
99344 41 18412826867503130175

>  <PUBCHEM_SHAPE_MULTIPOLES>  (1) 
658.54
23.35
2.43
0.62
0
0
0
0
-0.03
0
0
0
0
0

>  <PUBCHEM_SHAPE_SELFOVERLAP>  (1) 
1571.537

>  <PUBCHEM_SHAPE_VOLUME>  (1) 
294.1

>  <PUBCHEM_COORDINATE_TYPE>  (1) 
2
5
10

$$$$
