9107
     RDKit          3D

 24 29  0  0  0  0  0  0  0  0999 V2000
    0.6921    1.8676    0.0003 N   0  0  0  0  0  0  0  0  0  0  0  0
   -0.6921    1.8676    0.0003 N   0  0  0  0  0  0  0  0  0  0  0  0
    0.7081   -0.4904    0.0002 C   0  0  0  0  0  0  0  0  0  0  0  0
   -0.7080   -0.4905    0.0002 C   0  0  0  0  0  0  0  0  0  0  0  0
    1.4104   -1.7165    0.0001 C   0  0  0  0  0  0  0  0  0  0  0  0
   -1.4104   -1.7164    0.0001 C   0  0  0  0  0  0  0  0  0  0  0  0
    1.3994    0.7297    0.0002 C   0  0  0  0  0  0  0  0  0  0  0  0
   -1.3994    0.7298    0.0002 C   0  0  0  0  0  0  0  0  0  0  0  0
    2.8102    0.7246    0.0002 C   0  0  0  0  0  0  0  0  0  0  0  0
   -2.8102    0.7247    0.0001 C   0  0  0  0  0  0  0  0  0  0  0  0
    3.5178   -0.5019    0.0001 C   0  0  0  0  0  0  0  0  0  0  0  0
   -3.5177   -0.5019   -0.0001 C   0  0  0  0  0  0  0  0  0  0  0  0
    2.8084   -1.7072    0.0001 C   0  0  0  0  0  0  0  0  0  0  0  0
   -2.8084   -1.7072   -0.0001 C   0  0  0  0  0  0  0  0  0  0  0  0
    0.6968   -2.9212    0.0000 C   0  0  0  0  0  0  0  0  0  0  0  0
   -0.6969   -2.9212   -0.0001 C   0  0  0  0  0  0  0  0  0  0  0  0
    3.5612    1.9194   -0.0001 C   0  0  0  0  0  0  0  0  0  0  0  0
   -3.5613    1.9194    0.0000 C   0  0  0  0  0  0  0  0  0  0  0  0
    4.9230   -0.5020   -0.0002 C   0  0  0  0  0  0  0  0  0  0  0  0
   -4.9230   -0.5020   -0.0002 C   0  0  0  0  0  0  0  0  0  0  0  0
    4.9574    1.9041   -0.0004 C   0  0  0  0  0  0  0  0  0  0  0  0
   -4.9574    1.9041   -0.0003 C   0  0  0  0  0  0  0  0  0  0  0  0
    5.6379    0.6937   -0.0004 C   0  0  0  0  0  0  0  0  0  0  0  0
   -5.6379    0.6937   -0.0003 C   0  0  0  0  0  0  0  0  0  0  0  0
  1  2  2  0
  1  7  1  0
  2  8  1  0
  3  4  1  0
  3  5  1  0
  3  7  2  0
  4  6  1  0
  4  8  2  0
  5 13  2  0
  5 15  1  0
  6 14  2  0
  6 16  1  0
  7  9  1  0
  8 10  1  0
  9 11  2  0
  9 17  1  0
 10 12  2  0
 10 18  1  0
 11 13  1  0
 11 19  1  0
 12 14  1  0
 12 20  1  0
 15 16  2  0
 17 21  2  0
 18 22  2  0
 19 23  2  0
 20 24  2  0
 21 23  1  0
 22 24  1  0
M  END
>  <PUBCHEM_COMPOUND_CID>  (1) 
9107

>  <PUBCHEM_CONFORMER_RMSD>  (1) 
0.6

>  <PUBCHEM_CONFORMER_DIVERSEORDER>  (1) 
1

>  <PUBCHEM_MMFF94_PARTIAL_CHARGES>  (1) 
28
1 -0.31
13 -0.15
14 -0.15
15 -0.15
16 -0.15
17 -0.15
18 -0.15
19 -0.15
2 -0.31
20 -0.15
21 -0.15
22 -0.15
23 -0.15
24 -0.15
25 0.15
26 0.15
27 0.15
28 0.15
29 0.15
30 0.15
31 0.15
32 0.15
33 0.15
34 0.15
35 0.15
36 0.15
7 0.31
8 0.31

>  <PUBCHEM_EFFECTIVE_ROTOR_COUNT>  (1) 
0

>  <PUBCHEM_PHARMACOPHORE_FEATURES>  (1) 
8
1 1 acceptor
1 2 acceptor
6 1 2 3 4 7 8 rings
6 10 12 18 20 22 24 rings
6 3 4 5 6 15 16 rings
6 3 5 7 9 11 13 rings
6 4 6 8 10 12 14 rings
6 9 11 17 19 21 23 rings

>  <PUBCHEM_HEAVY_ATOM_COUNT>  (1) 
24

>  <PUBCHEM_ATOM_DEF_STEREO_COUNT>  (1) 
0

>  <PUBCHEM_ATOM_UDEF_STEREO_COUNT>  (1) 
0

>  <PUBCHEM_BOND_DEF_STEREO_COUNT>  (1) 
0

>  <PUBCHEM_BOND_UDEF_STEREO_COUNT>  (1) 
0

>  <PUBCHEM_ISOTOPIC_ATOM_COUNT>  (1) 
0

>  <PUBCHEM_COMPONENT_COUNT>  (1) 
1

>  <PUBCHEM_CACTVS_TAUTO_COUNT>  (1) 
1

>  <PUBCHEM_CONFORMER_ID>  (1) 
0000239300000001

>  <PUBCHEM_MMFF94_ENERGY>  (1) 
89.1384

>  <PUBCHEM_FEATURE_SELFOVERLAP>  (1) 
42.285

>  <PUBCHEM_SHAPE_FINGERPRINT>  (1) 
10 15 18261108629968196808
10411042 1 17402050492228626927
10493431 412 18410292535949825517
10616163 171 18338800116679795582
10906281 52 18338535082811201888
10948715 1 18410856563935120647
10967382 1 18410855430100567335
1100329 8 18339643472136846561
11112241 14 16269091622462403320
12107183 9 17619632384544914625
12390115 104 18270698518297184649
12403814 3 17603860122066888301
12788726 201 17560243509484931113
12838862 33 18338779178687938209
13140716 1 18335981973899217866
13402501 40 18410575084663273804
13785724 45 17833545696540617018
138480 1 17762055436947435810
14528608 73 18413106160472540941
14787075 74 18343578551649182169
14790565 3 18410860957686794368
15042514 8 18120377824540055875
15131766 46 16083351119113726084
15196674 1 18410856563934919271
1601671 61 18409446977327889832
1813 80 16877664547714510412
18608769 82 18338800134782948059
18681886 176 18412539938318620528
19591789 44 18410572889934849123
20715895 44 18264484001325891413
21033648 29 18270954747451089104
21236236 1 18340205297452291055
21267235 1 18410864256221508803
21279426 13 18340491062874217638
21304253 335 18334582329951217596
21421861 104 17896024478499649714
22182313 1 18268172961500209767
23227448 37 18341331183830660422
23402539 116 18343295993945106854
23558518 356 17756142650371009912
23559900 14 18271526399757279262
3004659 81 18335704915066291342
335352 9 18410856543372719254
338550 245 18334299815803625612
34934 24 18410570690917115178
350125 39 18337108965333999108
3545911 37 18410857659156919476
3680242 22 18335699378368352114
4073 2 18041005067455855098
4214541 1 18410856572535585253
4340502 62 18411984654285619485
474 4 18409450258556167203
495365 180 17274812606544666696
5104073 3 18407760317763667819
59755656 215 18340211804422528062
59755656 520 17095521816434542498
6138700 20 18338520716784381070
9709674 26 18412832386546752494
9981440 41 18335139816907205363

>  <PUBCHEM_SHAPE_MULTIPOLES>  (1) 
483.95
11.39
2.87
0.61
0
1.08
0
-5.85
0
0
0
0
0.01
0

>  <PUBCHEM_SHAPE_SELFOVERLAP>  (1) 
1149.943

>  <PUBCHEM_SHAPE_VOLUME>  (1) 
238.5

>  <PUBCHEM_COORDINATE_TYPE>  (1) 
2
5
10

$$$$
