9111
     RDKit          3D

 24 29  0  0  0  0  0  0  0  0999 V2000
   -1.2741    0.1096    0.0001 C   0  0  0  0  0  0  0  0  0  0  0  0
   -0.4925   -1.0721    0.0000 C   0  0  0  0  0  0  0  0  0  0  0  0
   -2.6983    0.0569    0.0000 C   0  0  0  0  0  0  0  0  0  0  0  0
    0.9480   -0.9751    0.0004 C   0  0  0  0  0  0  0  0  0  0  0  0
   -0.6420    1.3652    0.0005 C   0  0  0  0  0  0  0  0  0  0  0  0
    1.5893    0.2953    0.0001 C   0  0  0  0  0  0  0  0  0  0  0  0
   -3.3629   -1.1872   -0.0006 C   0  0  0  0  0  0  0  0  0  0  0  0
    0.7566    1.4352    0.0003 C   0  0  0  0  0  0  0  0  0  0  0  0
   -3.4633    1.2486    0.0004 C   0  0  0  0  0  0  0  0  0  0  0  0
    3.0326    0.3932   -0.0002 C   0  0  0  0  0  0  0  0  0  0  0  0
   -1.2067   -2.2954   -0.0006 C   0  0  0  0  0  0  0  0  0  0  0  0
   -1.4134    2.5367    0.0009 C   0  0  0  0  0  0  0  0  0  0  0  0
   -2.6034   -2.3549   -0.0010 C   0  0  0  0  0  0  0  0  0  0  0  0
    1.7809   -2.1135    0.0011 C   0  0  0  0  0  0  0  0  0  0  0  0
    3.8073   -0.7912    0.0006 C   0  0  0  0  0  0  0  0  0  0  0  0
   -2.8054    2.4807    0.0008 C   0  0  0  0  0  0  0  0  0  0  0  0
    3.1711   -2.0272    0.0014 C   0  0  0  0  0  0  0  0  0  0  0  0
   -4.7654   -1.2318   -0.0009 C   0  0  0  0  0  0  0  0  0  0  0  0
   -4.8643    1.1776    0.0002 C   0  0  0  0  0  0  0  0  0  0  0  0
    3.7604    1.6134   -0.0015 C   0  0  0  0  0  0  0  0  0  0  0  0
   -5.5104   -0.0557   -0.0005 C   0  0  0  0  0  0  0  0  0  0  0  0
    5.2126   -0.7401    0.0006 C   0  0  0  0  0  0  0  0  0  0  0  0
    5.1581    1.6552   -0.0017 C   0  0  0  0  0  0  0  0  0  0  0  0
    5.8853    0.4766   -0.0006 C   0  0  0  0  0  0  0  0  0  0  0  0
  1  2  2  0
  1  3  1  0
  1  5  1  0
  2  4  1  0
  2 11  1  0
  3  7  2  0
  3  9  1  0
  4  6  2  0
  4 14  1  0
  5  8  2  0
  5 12  1  0
  6  8  1  0
  6 10  1  0
  7 13  1  0
  7 18  1  0
  9 16  1  0
  9 19  2  0
 10 15  2  0
 10 20  1  0
 11 13  2  0
 12 16  2  0
 14 17  2  0
 15 17  1  0
 15 22  1  0
 18 21  2  0
 19 21  1  0
 20 23  2  0
 22 24  2  0
 23 24  1  0
M  END
>  <PUBCHEM_COMPOUND_CID>  (1) 
9111

>  <PUBCHEM_CONFORMER_RMSD>  (1) 
0.6

>  <PUBCHEM_CONFORMER_DIVERSEORDER>  (1) 
1

>  <PUBCHEM_MMFF94_PARTIAL_CHARGES>  (1) 
28
11 -0.15
12 -0.15
13 -0.15
14 -0.15
16 -0.15
17 -0.15
18 -0.15
19 -0.15
20 -0.15
21 -0.15
22 -0.15
23 -0.15
24 -0.15
25 0.15
26 0.15
27 0.15
28 0.15
29 0.15
30 0.15
31 0.15
32 0.15
33 0.15
34 0.15
35 0.15
36 0.15
37 0.15
38 0.15
8 -0.15

>  <PUBCHEM_EFFECTIVE_ROTOR_COUNT>  (1) 
0

>  <PUBCHEM_PHARMACOPHORE_FEATURES>  (1) 
6
6 1 2 3 7 11 13 rings
6 1 2 4 5 6 8 rings
6 1 3 5 9 12 16 rings
6 10 15 20 22 23 24 rings
6 3 7 9 18 19 21 rings
6 4 6 10 14 15 17 rings

>  <PUBCHEM_HEAVY_ATOM_COUNT>  (1) 
24

>  <PUBCHEM_ATOM_DEF_STEREO_COUNT>  (1) 
0

>  <PUBCHEM_ATOM_UDEF_STEREO_COUNT>  (1) 
0

>  <PUBCHEM_BOND_DEF_STEREO_COUNT>  (1) 
0

>  <PUBCHEM_BOND_UDEF_STEREO_COUNT>  (1) 
0

>  <PUBCHEM_ISOTOPIC_ATOM_COUNT>  (1) 
0

>  <PUBCHEM_COMPONENT_COUNT>  (1) 
1

>  <PUBCHEM_CACTVS_TAUTO_COUNT>  (1) 
1

>  <PUBCHEM_CONFORMER_ID>  (1) 
0000239700000001

>  <PUBCHEM_MMFF94_ENERGY>  (1) 
94.3519

>  <PUBCHEM_FEATURE_SELFOVERLAP>  (1) 
30.622

>  <PUBCHEM_SHAPE_FINGERPRINT>  (1) 
10 15 18337663218406310848
10319926 262 18340470198556265730
10411042 1 17834395996843487159
10616163 171 18411420630843783110
10675989 125 16894255903865200429
10906281 52 18339099149604021127
10967382 1 18338798918446905157
1100329 8 18265336281961944409
11112241 14 16197593671232012288
11578080 2 13972313884724519673
11595378 159 17531514408928110392
12011746 2 18412258441808849637
12107183 9 17688869739963238448
12236239 1 18409446985738261990
12390115 104 18129114328795492241
12788726 201 17488748865463598129
12838862 33 18337934745953848725
13140716 1 18122631823059875017
13224815 77 18410573976856922176
13402501 40 18412826901667202409
138480 1 17545883728834029798
14341114 176 18409735049490281812
14765038 42 18200894889248299041
14787075 74 18411416224027677633
14790565 3 18411142411399606737
15196674 1 18410855447248567143
16087824 20 18412260654756536183
17349148 13 17894914035747432012
17492 89 18338234847618731394
1813 80 17095244709138521188
18681886 176 18412542137732149184
19591789 44 18338234839022807435
200 152 18131912658780683041
20510252 161 18343022142846797337
21236236 1 18413389822062495161
21267235 1 18410301306331442982
21279426 13 18339643317538662014
21421861 104 17969211257915229018
23227448 37 18412543223541165230
23402539 116 18341888615072612847
23559900 14 18341325686589246896
245318 6 17026860760097391492
3004659 81 18334859399151195082
335352 9 18410855451575209364
338550 245 18334018328084418364
34797466 226 17632585984804033348
34934 24 18410570703912897287
350125 39 18410573990042731752
3545911 37 18410013238532083444
3680242 22 18335136432794346146
4073 2 18041284374233911866
4214541 1 18410573968156484096
474 4 17676494973132337932
5104073 3 18409449150433467586
59755656 215 18411705366191184742
59755656 520 17095240341225892178
9709674 26 18340493278972282310

>  <PUBCHEM_SHAPE_MULTIPOLES>  (1) 
493.91
11.92
2.74
0.62
5.22
0
0
1.46
0
-0.77
0
0
0
0

>  <PUBCHEM_SHAPE_SELFOVERLAP>  (1) 
1170.149

>  <PUBCHEM_SHAPE_VOLUME>  (1) 
222

>  <PUBCHEM_COORDINATE_TYPE>  (1) 
2
5
10

$$$$
