9113
     RDKit          3D

 42 52  0  0  0  0  0  0  0  0999 V2000
    6.2067    0.2860   -0.0006 C   0  0  0  0  0  0  0  0  0  0  0  0
   -6.2068   -0.2859   -0.0016 C   0  0  0  0  0  0  0  0  0  0  0  0
    3.7786   -0.1713    0.0025 C   0  0  0  0  0  0  0  0  0  0  0  0
   -3.7787    0.1711    0.0025 C   0  0  0  0  0  0  0  0  0  0  0  0
    5.1367   -0.6483    0.0020 C   0  0  0  0  0  0  0  0  0  0  0  0
   -5.1367    0.6481    0.0014 C   0  0  0  0  0  0  0  0  0  0  0  0
    3.5385    1.2219    0.0014 C   0  0  0  0  0  0  0  0  0  0  0  0
   -3.5387   -1.2221    0.0017 C   0  0  0  0  0  0  0  0  0  0  0  0
    1.3172   -0.5156    0.0042 C   0  0  0  0  0  0  0  0  0  0  0  0
   -1.3172    0.5153    0.0042 C   0  0  0  0  0  0  0  0  0  0  0  0
    1.1101    0.8712    0.0037 C   0  0  0  0  0  0  0  0  0  0  0  0
   -1.1101   -0.8715    0.0040 C   0  0  0  0  0  0  0  0  0  0  0  0
    7.5621   -0.1497   -0.0014 C   0  0  0  0  0  0  0  0  0  0  0  0
   -7.5620    0.1499   -0.0023 C   0  0  0  0  0  0  0  0  0  0  0  0
    5.9377    1.6712   -0.0025 C   0  0  0  0  0  0  0  0  0  0  0  0
   -5.9380   -1.6712   -0.0029 C   0  0  0  0  0  0  0  0  0  0  0  0
    2.6353   -1.0123    0.0040 C   0  0  0  0  0  0  0  0  0  0  0  0
   -2.6352    1.0120    0.0039 C   0  0  0  0  0  0  0  0  0  0  0  0
    2.2242    1.7218    0.0024 C   0  0  0  0  0  0  0  0  0  0  0  0
   -2.2243   -1.7220    0.0028 C   0  0  0  0  0  0  0  0  0  0  0  0
    4.6136    2.1172   -0.0014 C   0  0  0  0  0  0  0  0  0  0  0  0
   -4.6137   -2.1174   -0.0007 C   0  0  0  0  0  0  0  0  0  0  0  0
    0.2033   -1.3733    0.0044 C   0  0  0  0  0  0  0  0  0  0  0  0
   -0.2033    1.3730    0.0042 C   0  0  0  0  0  0  0  0  0  0  0  0
    7.8647   -1.5283    0.0007 C   0  0  0  0  0  0  0  0  0  0  0  0
   -7.8645    1.5285    0.0001 C   0  0  0  0  0  0  0  0  0  0  0  0
    8.6203    0.7916   -0.0045 C   0  0  0  0  0  0  0  0  0  0  0  0
   -8.6203   -0.7913   -0.0051 C   0  0  0  0  0  0  0  0  0  0  0  0
    5.4889   -2.0177    0.0039 C   0  0  0  0  0  0  0  0  0  0  0  0
   -5.4887    2.0176    0.0032 C   0  0  0  0  0  0  0  0  0  0  0  0
    6.9964    2.5899   -0.0058 C   0  0  0  0  0  0  0  0  0  0  0  0
   -6.9965   -2.5898   -0.0060 C   0  0  0  0  0  0  0  0  0  0  0  0
    6.8180   -2.4494    0.0033 C   0  0  0  0  0  0  0  0  0  0  0  0
   -6.8177    2.4495    0.0028 C   0  0  0  0  0  0  0  0  0  0  0  0
    8.3206    2.1567   -0.0068 C   0  0  0  0  0  0  0  0  0  0  0  0
   -8.3208   -2.1564   -0.0073 C   0  0  0  0  0  0  0  0  0  0  0  0
    9.2030   -1.9494    0.0000 C   0  0  0  0  0  0  0  0  0  0  0  0
   -9.2029    1.9497    0.0010 C   0  0  0  0  0  0  0  0  0  0  0  0
    9.9496    0.3440   -0.0057 C   0  0  0  0  0  0  0  0  0  0  0  0
   -9.9496   -0.3437   -0.0049 C   0  0  0  0  0  0  0  0  0  0  0  0
   10.2381   -1.0181   -0.0035 C   0  0  0  0  0  0  0  0  0  0  0  0
  -10.2380    1.0185   -0.0015 C   0  0  0  0  0  0  0  0  0  0  0  0
  1  5  2  0
  1 13  1  0
  1 15  1  0
  2  6  2  0
  2 14  1  0
  2 16  1  0
  3  5  1  0
  3  7  1  0
  3 17  2  0
  4  6  1  0
  4  8  1  0
  4 18  2  0
  5 29  1  0
  6 30  1  0
  7 19  2  0
  7 21  1  0
  8 20  2  0
  8 22  1  0
  9 11  2  0
  9 17  1  0
  9 23  1  0
 10 12  1  0
 10 18  1  0
 10 24  2  0
 11 19  1  0
 11 24  1  0
 12 20  1  0
 12 23  2  0
 13 25  2  0
 13 27  1  0
 14 26  2  0
 14 28  1  0
 15 21  2  0
 15 31  1  0
 16 22  2  0
 16 32  1  0
 25 33  1  0
 25 37  1  0
 26 34  1  0
 26 38  1  0
 27 35  1  0
 27 39  2  0
 28 36  1  0
 28 40  2  0
 29 33  2  0
 30 34  2  0
 31 35  2  0
 32 36  2  0
 37 41  2  0
 38 42  2  0
 39 41  1  0
 40 42  1  0
M  END
>  <PUBCHEM_COMPOUND_CID>  (1) 
9113

>  <PUBCHEM_CONFORMER_RMSD>  (1) 
0.8

>  <PUBCHEM_CONFORMER_DIVERSEORDER>  (1) 
1

>  <PUBCHEM_MMFF94_PARTIAL_CHARGES>  (1) 
44
17 -0.15
18 -0.15
19 -0.15
20 -0.15
21 -0.15
22 -0.15
23 -0.15
24 -0.15
29 -0.15
30 -0.15
31 -0.15
32 -0.15
33 -0.15
34 -0.15
35 -0.15
36 -0.15
37 -0.15
38 -0.15
39 -0.15
40 -0.15
41 -0.15
42 -0.15
43 0.15
44 0.15
45 0.15
46 0.15
47 0.15
48 0.15
49 0.15
50 0.15
51 0.15
52 0.15
53 0.15
54 0.15
55 0.15
56 0.15
57 0.15
58 0.15
59 0.15
60 0.15
61 0.15
62 0.15
63 0.15
64 0.15

>  <PUBCHEM_EFFECTIVE_ROTOR_COUNT>  (1) 
0

>  <PUBCHEM_PHARMACOPHORE_FEATURES>  (1) 
11
6 1 13 15 27 31 35 rings
6 1 3 5 7 15 21 rings
6 1 5 13 25 29 33 rings
6 13 25 27 37 39 41 rings
6 14 26 28 38 40 42 rings
6 2 14 16 28 32 36 rings
6 2 4 6 8 16 22 rings
6 2 6 14 26 30 34 rings
6 3 7 9 11 17 19 rings
6 4 8 10 12 18 20 rings
6 9 10 11 12 23 24 rings

>  <PUBCHEM_HEAVY_ATOM_COUNT>  (1) 
42

>  <PUBCHEM_ATOM_DEF_STEREO_COUNT>  (1) 
0

>  <PUBCHEM_ATOM_UDEF_STEREO_COUNT>  (1) 
0

>  <PUBCHEM_BOND_DEF_STEREO_COUNT>  (1) 
0

>  <PUBCHEM_BOND_UDEF_STEREO_COUNT>  (1) 
0

>  <PUBCHEM_ISOTOPIC_ATOM_COUNT>  (1) 
0

>  <PUBCHEM_COMPONENT_COUNT>  (1) 
1

>  <PUBCHEM_CACTVS_TAUTO_COUNT>  (1) 
1

>  <PUBCHEM_CONFORMER_ID>  (1) 
0000239900000001

>  <PUBCHEM_MMFF94_ENERGY>  (1) 
166.3387

>  <PUBCHEM_FEATURE_SELFOVERLAP>  (1) 
56.187

>  <PUBCHEM_SHAPE_FINGERPRINT>  (1) 
100830 39 18410855435261074697
10580692 12 18411138051801644267
10674148 151 18187363242077630195
10677351 14 18409739478055179940
12013929 2 18410856542459920448
12013929 94 18340770441627923227
12082328 90 18411697695242119175
12089408 11 18410574010921254927
12522641 33 18131071519638592686
12664476 115 18410289207434950461
13811026 1 18342460335064441871
13947934 56 18412262822195859376
14118638 360 15841563924423486766
15064986 266 18261679267322246947
15064986 96 17988931054524441086
15065858 18 18412541037223352795
15289351 153 18341607097157129585
15347591 1 18118128205972897802
15510794 2 18410576188474968231
15840311 113 18260269677142976092
15890870 6 18343864415845696847
19611394 137 18042699476127290043
19841028 212 18335981953337439978
21792934 111 18201712965055125896
21792961 116 17917994967047986771
22082593 10 18410856573585209067
22164985 6 18186516596602303558
232437 2 18410575084663078918
335352 9 18410855455833194775
335507 130 18202281420112128831
3430473 40 18340205177721331674
395649 100 18261393382474484955
4073 2 18114185288804675930
42767 2 18412544335789969558
4353968 344 18202274832956519623
439807 62 18413671318935996712
44280117 145 18270398421461019967
44389302 135 18272646806728673458
45270241 37 18412268350899846974
4625314 4 18410575127612751926
58083652 198 16702302390402387962
6126387 218 18412263935019306051
6201320 215 18201721718067047705
6691757 9 15984827073468311143
67123 10 18410856551049854981
9663363 56 16630522930938015698
9831232 110 18200602389344137070
99344 41 18411700980291421790

>  <PUBCHEM_SHAPE_MULTIPOLES>  (1) 
864.34
40.61
2.79
0.62
0
0
0
0
-0.08
0
0
0
0
-0.02

>  <PUBCHEM_SHAPE_SELFOVERLAP>  (1) 
2091.12

>  <PUBCHEM_SHAPE_VOLUME>  (1) 
369.9

>  <PUBCHEM_COORDINATE_TYPE>  (1) 
2
5
10

$$$$
