9128
     RDKit          3D

 20 24  0  0  0  0  0  0  0  0999 V2000
    0.8421   -0.7083    0.0001 C   0  0  0  0  0  0  0  0  0  0  0  0
    0.8421    0.7083    0.0001 C   0  0  0  0  0  0  0  0  0  0  0  0
   -0.3793   -1.4276    0.0002 C   0  0  0  0  0  0  0  0  0  0  0  0
   -0.3793    1.4276    0.0002 C   0  0  0  0  0  0  0  0  0  0  0  0
   -1.6223   -0.7119    0.0001 C   0  0  0  0  0  0  0  0  0  0  0  0
   -1.6223    0.7120    0.0001 C   0  0  0  0  0  0  0  0  0  0  0  0
    2.0862   -1.4033    0.0001 C   0  0  0  0  0  0  0  0  0  0  0  0
    2.0863    1.4033    0.0000 C   0  0  0  0  0  0  0  0  0  0  0  0
   -0.2876   -2.8435    0.0001 C   0  0  0  0  0  0  0  0  0  0  0  0
   -0.2876    2.8435    0.0001 C   0  0  0  0  0  0  0  0  0  0  0  0
    3.2892   -0.6944   -0.0002 C   0  0  0  0  0  0  0  0  0  0  0  0
    3.2892    0.6943   -0.0001 C   0  0  0  0  0  0  0  0  0  0  0  0
    2.1154   -2.7990   -0.0002 C   0  0  0  0  0  0  0  0  0  0  0  0
    2.1155    2.7989   -0.0001 C   0  0  0  0  0  0  0  0  0  0  0  0
   -2.8811   -1.3725    0.0000 C   0  0  0  0  0  0  0  0  0  0  0  0
   -2.8810    1.3725    0.0000 C   0  0  0  0  0  0  0  0  0  0  0  0
    0.9326   -3.5172   -0.0001 C   0  0  0  0  0  0  0  0  0  0  0  0
    0.9326    3.5171    0.0000 C   0  0  0  0  0  0  0  0  0  0  0  0
   -4.0953   -0.6891   -0.0003 C   0  0  0  0  0  0  0  0  0  0  0  0
   -4.0953    0.6891   -0.0003 C   0  0  0  0  0  0  0  0  0  0  0  0
  1  2  2  0
  1  3  1  0
  1  7  1  0
  2  4  1  0
  2  8  1  0
  3  5  1  0
  3  9  2  0
  4  6  1  0
  4 10  2  0
  5  6  2  0
  5 15  1  0
  6 16  1  0
  7 11  2  0
  7 13  1  0
  8 12  2  0
  8 14  1  0
  9 17  1  0
 10 18  1  0
 11 12  1  0
 13 17  2  0
 14 18  2  0
 15 19  2  0
 16 20  2  0
 19 20  1  0
M  END
>  <PUBCHEM_COMPOUND_CID>  (1) 
9128

>  <PUBCHEM_CONFORMER_RMSD>  (1) 
0.6

>  <PUBCHEM_CONFORMER_DIVERSEORDER>  (1) 
1

>  <PUBCHEM_MMFF94_PARTIAL_CHARGES>  (1) 
24
10 -0.15
11 -0.15
12 -0.15
13 -0.15
14 -0.15
15 -0.15
16 -0.15
17 -0.15
18 -0.15
19 -0.15
20 -0.15
21 0.15
22 0.15
23 0.15
24 0.15
25 0.15
26 0.15
27 0.15
28 0.15
29 0.15
30 0.15
31 0.15
32 0.15
9 -0.15

>  <PUBCHEM_EFFECTIVE_ROTOR_COUNT>  (1) 
0

>  <PUBCHEM_PHARMACOPHORE_FEATURES>  (1) 
5
6 1 2 3 4 5 6 rings
6 1 2 7 8 11 12 rings
6 1 3 7 9 13 17 rings
6 2 4 8 10 14 18 rings
6 5 6 15 16 19 20 rings

>  <PUBCHEM_HEAVY_ATOM_COUNT>  (1) 
20

>  <PUBCHEM_ATOM_DEF_STEREO_COUNT>  (1) 
0

>  <PUBCHEM_ATOM_UDEF_STEREO_COUNT>  (1) 
0

>  <PUBCHEM_BOND_DEF_STEREO_COUNT>  (1) 
0

>  <PUBCHEM_BOND_UDEF_STEREO_COUNT>  (1) 
0

>  <PUBCHEM_ISOTOPIC_ATOM_COUNT>  (1) 
0

>  <PUBCHEM_COMPONENT_COUNT>  (1) 
1

>  <PUBCHEM_CACTVS_TAUTO_COUNT>  (1) 
1

>  <PUBCHEM_CONFORMER_ID>  (1) 
000023A800000001

>  <PUBCHEM_MMFF94_ENERGY>  (1) 
79.4865

>  <PUBCHEM_FEATURE_SELFOVERLAP>  (1) 
25.521

>  <PUBCHEM_SHAPE_FINGERPRINT>  (1) 
10319926 262 16896773798536264378
10411042 1 18050568439485900103
10693767 8 18130783434543547095
10967382 1 18410575046018974726
1100329 8 18266456693048100530
11578080 2 17054384546458738897
116883 192 17764025770484569327
12553582 1 18122630448607088475
13140716 1 18410854360653548640
13583140 156 16808948507168527193
138480 1 18338517421958434754
14178342 30 18341880905543071617
14223421 5 18051408461894465074
14790565 3 18337966674382576820
15196674 1 18410575084663078912
15442244 35 18124034525013598963
16945 1 18410575084726375940
193761 8 17762055437162999076
19591789 44 18265900343974116367
20028762 73 18057321901854637911
20645477 70 18334849542074624301
20739085 24 18190484768833107545
20905425 154 17981326694715468766
21197605 99 17833284390946645323
21267235 1 18339370681800227659
21421861 104 17827642452299802490
221490 88 18336272331105536907
23184049 29 17761772866922369590
2334 1 18410855494493181420
23558518 356 17469315298279933602
23559900 14 18122898733955524010
238 59 17829844941973692839
2748010 2 18410012147599840788
3091708 16 9288335032246393561
335352 9 18410573989451739093
34934 24 18267295452694881359
350125 39 17977110385213124643
352729 6 17762337320056016879
484985 159 14716727026693340506
54173680 148 17185595715615108698
589210 1 17689998255468207874
5939293 188 18411696595340217864
6443956 14 18337111146829466413
7364860 26 18411418414571722725
7832392 63 18268711615171063081
81228 2 17760372084707867609
9709674 26 18409733967364803699

>  <PUBCHEM_SHAPE_MULTIPOLES>  (1) 
411.59
5.53
4.23
0.62
4.14
0
0
0
0
-2.29
0
0
0
0

>  <PUBCHEM_SHAPE_SELFOVERLAP>  (1) 
969.696

>  <PUBCHEM_SHAPE_VOLUME>  (1) 
186.4

>  <PUBCHEM_COORDINATE_TYPE>  (1) 
2
5
10

$$$$
