9132
     RDKit          3D

 16 19  0  0  0  0  0  0  0  0999 V2000
   -3.5159    0.0000    0.0001 N   0  0  0  0  0  0  0  0  0  0  0  0
    0.7099    0.0000   -0.0001 C   0  0  0  0  0  0  0  0  0  0  0  0
   -0.7051    0.0000   -0.0001 C   0  0  0  0  0  0  0  0  0  0  0  0
    1.4136    1.2270   -0.0001 C   0  0  0  0  0  0  0  0  0  0  0  0
    1.4135   -1.2270    0.0000 C   0  0  0  0  0  0  0  0  0  0  0  0
   -1.4116    1.2179    0.0000 C   0  0  0  0  0  0  0  0  0  0  0  0
   -1.4116   -1.2178    0.0000 C   0  0  0  0  0  0  0  0  0  0  0  0
    0.6923    2.4309    0.0000 C   0  0  0  0  0  0  0  0  0  0  0  0
    0.6923   -2.4309    0.0000 C   0  0  0  0  0  0  0  0  0  0  0  0
   -0.7044    2.4285    0.0000 C   0  0  0  0  0  0  0  0  0  0  0  0
   -0.7044   -2.4284    0.0000 C   0  0  0  0  0  0  0  0  0  0  0  0
    2.8159    1.2093    0.0001 C   0  0  0  0  0  0  0  0  0  0  0  0
    2.8159   -1.2093    0.0001 C   0  0  0  0  0  0  0  0  0  0  0  0
   -2.8053    1.1504    0.0001 C   0  0  0  0  0  0  0  0  0  0  0  0
   -2.8054   -1.1504    0.0000 C   0  0  0  0  0  0  0  0  0  0  0  0
    3.5103    0.0000    0.0001 C   0  0  0  0  0  0  0  0  0  0  0  0
  1 14  2  0
  1 15  1  0
  2  3  1  0
  2  4  2  0
  2  5  1  0
  3  6  2  0
  3  7  1  0
  4  8  1  0
  4 12  1  0
  5  9  1  0
  5 13  2  0
  6 10  1  0
  6 14  1  0
  7 11  1  0
  7 15  2  0
  8 10  2  0
  9 11  2  0
 12 16  2  0
 13 16  1  0
M  END
>  <PUBCHEM_COMPOUND_CID>  (1) 
9132

>  <PUBCHEM_CONFORMER_RMSD>  (1) 
0.4

>  <PUBCHEM_CONFORMER_DIVERSEORDER>  (1) 
1

>  <PUBCHEM_MMFF94_PARTIAL_CHARGES>  (1) 
19
1 -0.62
10 -0.15
11 -0.15
12 -0.15
13 -0.15
14 0.16
15 0.16
16 -0.15
17 0.15
18 0.15
19 0.15
20 0.15
21 0.15
22 0.15
23 0.15
24 0.15
25 0.15
8 -0.15
9 -0.15

>  <PUBCHEM_EFFECTIVE_ROTOR_COUNT>  (1) 
0

>  <PUBCHEM_PHARMACOPHORE_FEATURES>  (1) 
5
1 1 acceptor
6 1 3 6 7 14 15 rings
6 2 3 4 6 8 10 rings
6 2 3 5 7 9 11 rings
6 2 4 5 12 13 16 rings

>  <PUBCHEM_HEAVY_ATOM_COUNT>  (1) 
16

>  <PUBCHEM_ATOM_DEF_STEREO_COUNT>  (1) 
0

>  <PUBCHEM_ATOM_UDEF_STEREO_COUNT>  (1) 
0

>  <PUBCHEM_BOND_DEF_STEREO_COUNT>  (1) 
0

>  <PUBCHEM_BOND_UDEF_STEREO_COUNT>  (1) 
0

>  <PUBCHEM_ISOTOPIC_ATOM_COUNT>  (1) 
0

>  <PUBCHEM_COMPONENT_COUNT>  (1) 
1

>  <PUBCHEM_CACTVS_TAUTO_COUNT>  (1) 
1

>  <PUBCHEM_CONFORMER_ID>  (1) 
000023AC00000001

>  <PUBCHEM_MMFF94_ENERGY>  (1) 
55.113

>  <PUBCHEM_FEATURE_SELFOVERLAP>  (1) 
25.505

>  <PUBCHEM_SHAPE_FINGERPRINT>  (1) 
10967382 1 18410575101853569062
11132069 177 18412538799756427208
11471102 20 18410288104055318117
11680986 33 18050286173944199371
12382932 28 18411699876521119936
13140716 1 18410575041729237170
13380535 76 18410853265421355814
14614273 12 18116145563307128581
14790565 3 18338538381347098593
15196674 1 18410855464433678604
16945 1 18410855451606798978
193761 8 17762055436967761794
19591789 44 18410579482715462410
20510252 161 18272368638047982456
20588541 1 18410577287997139028
20905425 154 18053102822261268486
21267235 1 18410583885067262950
21501502 16 18410855447269640168
22721475 48 18410859858211752068
2334 1 18410575119038641542
23402539 116 18342444950781796462
23419403 2 16041881920652577705
23463225 33 18408039593933315400
23559900 14 18270689783441870412
2748010 2 18410574002341869926
2897 32 18337111155234537668
335352 9 18050285873238440628
528886 8 18411414016435599482
53812653 166 18342172288951285640
589210 1 17689998255246681304
8809292 202 18333455347749708234

>  <PUBCHEM_SHAPE_MULTIPOLES>  (1) 
324.29
4.68
2.84
0.61
0.08
0
0
0
0
-0.05
0
0.02
0
0

>  <PUBCHEM_SHAPE_SELFOVERLAP>  (1) 
760.668

>  <PUBCHEM_SHAPE_VOLUME>  (1) 
162.5

>  <PUBCHEM_COORDINATE_TYPE>  (1) 
2
5
10

$$$$
