9140
     RDKit          3D

 22 26  0  0  0  0  0  0  0  0999 V2000
    0.5678    0.0294   -0.0707 C   0  0  0  0  0  0  0  0  0  0  0  0
   -0.1327   -1.2034   -0.1765 C   0  0  0  0  0  0  0  0  0  0  0  0
   -0.2301    1.2378   -0.1240 C   0  0  0  0  0  0  0  0  0  0  0  0
   -1.5613   -1.2626   -0.0344 C   0  0  0  0  0  0  0  0  0  0  0  0
   -1.6432    1.1918    0.0351 C   0  0  0  0  0  0  0  0  0  0  0  0
   -2.3083   -0.0687    0.1203 C   0  0  0  0  0  0  0  0  0  0  0  0
    2.0308   -0.0294    0.0786 C   0  0  0  0  0  0  0  0  0  0  0  0
    2.7268   -1.2343   -0.1864 C   0  0  0  0  0  0  0  0  0  0  0  0
    0.6259   -2.3706   -0.4228 C   0  0  0  0  0  0  0  0  0  0  0  0
    2.0131   -2.3811   -0.4785 C   0  0  0  0  0  0  0  0  0  0  0  0
    0.3278    2.5141   -0.4123 C   0  0  0  0  0  0  0  0  0  0  0  0
   -2.2837   -2.4921   -0.0075 C   0  0  0  0  0  0  0  0  0  0  0  0
   -2.3548    2.4258    0.0694 C   0  0  0  0  0  0  0  0  0  0  0  0
   -3.7159   -0.1853    0.3110 C   0  0  0  0  0  0  0  0  0  0  0  0
    2.8560    1.0289    0.5506 C   0  0  0  0  0  0  0  0  0  0  0  0
    4.1305   -1.3140   -0.1271 C   0  0  0  0  0  0  0  0  0  0  0  0
   -0.3997    3.7032   -0.4000 C   0  0  0  0  0  0  0  0  0  0  0  0
   -1.7462    3.6614   -0.1274 C   0  0  0  0  0  0  0  0  0  0  0  0
   -3.6636   -2.5676    0.1722 C   0  0  0  0  0  0  0  0  0  0  0  0
   -4.3837   -1.4072    0.3378 C   0  0  0  0  0  0  0  0  0  0  0  0
    4.2516    0.9464    0.6282 C   0  0  0  0  0  0  0  0  0  0  0  0
    4.8929   -0.2225    0.2644 C   0  0  0  0  0  0  0  0  0  0  0  0
  1  2  1  0
  1  3  1  0
  1  7  2  0
  2  4  1  0
  2  9  2  0
  3  5  2  0
  3 11  1  0
  4  6  2  0
  4 12  1  0
  5  6  1  0
  5 13  1  0
  6 14  1  0
  7  8  1  0
  7 15  1  0
  8 10  2  0
  8 16  1  0
  9 10  1  0
 11 17  2  0
 12 19  2  0
 13 18  2  0
 14 20  2  0
 15 21  2  0
 16 22  2  0
 17 18  1  0
 19 20  1  0
 21 22  1  0
M  END
>  <PUBCHEM_COMPOUND_CID>  (1) 
9140

>  <PUBCHEM_CONFORMER_RMSD>  (1) 
0.6

>  <PUBCHEM_CONFORMER_DIVERSEORDER>  (1) 
1

>  <PUBCHEM_MMFF94_PARTIAL_CHARGES>  (1) 
28
10 -0.15
11 -0.15
12 -0.15
13 -0.15
14 -0.15
15 -0.15
16 -0.15
17 -0.15
18 -0.15
19 -0.15
20 -0.15
21 -0.15
22 -0.15
23 0.15
24 0.15
25 0.15
26 0.15
27 0.15
28 0.15
29 0.15
30 0.15
31 0.15
32 0.15
33 0.15
34 0.15
35 0.15
36 0.15
9 -0.15

>  <PUBCHEM_EFFECTIVE_ROTOR_COUNT>  (1) 
0

>  <PUBCHEM_PHARMACOPHORE_FEATURES>  (1) 
5
6 1 2 3 4 5 6 rings
6 1 2 7 8 9 10 rings
6 3 5 11 13 17 18 rings
6 4 6 12 14 19 20 rings
6 7 8 15 16 21 22 rings

>  <PUBCHEM_HEAVY_ATOM_COUNT>  (1) 
22

>  <PUBCHEM_ATOM_DEF_STEREO_COUNT>  (1) 
0

>  <PUBCHEM_ATOM_UDEF_STEREO_COUNT>  (1) 
0

>  <PUBCHEM_BOND_DEF_STEREO_COUNT>  (1) 
0

>  <PUBCHEM_BOND_UDEF_STEREO_COUNT>  (1) 
0

>  <PUBCHEM_ISOTOPIC_ATOM_COUNT>  (1) 
0

>  <PUBCHEM_COMPONENT_COUNT>  (1) 
1

>  <PUBCHEM_CACTVS_TAUTO_COUNT>  (1) 
1

>  <PUBCHEM_CONFORMER_ID>  (1) 
000023B400000001

>  <PUBCHEM_MMFF94_ENERGY>  (1) 
104.2975

>  <PUBCHEM_FEATURE_SELFOVERLAP>  (1) 
25.461

>  <PUBCHEM_SHAPE_FINGERPRINT>  (1) 
10006869 2 18119805808237148859
10319926 262 18195788701905124922
10411042 1 18337955721999440735
10608611 8 18268709399004861596
10616163 171 18338798918721263758
10670039 82 18335435564882809716
10906281 52 18264226823300485817
10967382 1 18122627424786399941
1100329 8 17401487547033837940
11115154 58 17702073995205401101
11578080 2 13180535813450932411
11595378 159 18189591948464075272
12107183 9 17613145275158900290
12173636 292 17977103461757758781
12293681 4 18115035206913551155
12403259 226 18342172259245100210
12553582 1 18265634211016290967
12623949 98 17560256793761067390
12730499 353 17038103919131601157
12788726 201 18260827085870647714
13004483 165 18337659854708478195
13140716 1 18195252345776685505
133893 2 16155429500276609516
138480 1 15600044852658800157
14081887 123 18339356375184660384
14178342 30 18263352604361550250
14223421 5 18341051800761407486
14787075 74 17969222424608281594
14790565 3 17400085665055266917
15042514 8 18337110059912356200
15196674 1 18412263956140941986
16087824 20 18337674102006646493
16945 1 18338520733388795599
17357779 13 18339343245717660581
17492 89 18336544894152371690
18785283 64 17757565414375715803
19591789 44 18267584796004263972
20510252 161 18341894030773256465
20739085 24 18047209697977363745
20905425 154 18341052904573361894
21029758 11 18410005581127699175
21267235 1 18338807809087905771
22182313 1 18342181011882294399
2334 1 18411419539758280286
23366157 5 17537435498071113973
23402539 116 18340760520269053511
23557571 272 18342466902491300790
23558518 356 18189342264249726466
23559900 14 17838614462450756982
238 59 16312713195421059293
23845131 108 17546740253172455489
2748010 2 18194410983131933125
3091708 16 9207023935633324209
335352 9 18410012156970458535
34934 24 18410005525325162475
350125 39 18412826906795885912
3524813 1 18059285552395817120
352729 6 17906732497229338077
5104073 3 18341607058924164258
59755656 215 18338517417621406294
7097593 13 17393307833337199714
7364860 26 17905891731690638897
81228 2 18188784850614761681
9709674 26 18126283043435626350
9777508 108 18195805167744198297

>  <PUBCHEM_SHAPE_MULTIPOLES>  (1) 
452.75
7.64
4.1
0.7
4.06
2.98
0.01
-3.36
1.38
-2.72
-0.57
0.12
0.02
0.57

>  <PUBCHEM_SHAPE_SELFOVERLAP>  (1) 
1049.508

>  <PUBCHEM_SHAPE_VOLUME>  (1) 
210.2

>  <PUBCHEM_COORDINATE_TYPE>  (1) 
2
5
10

$$$$
