9141
     RDKit          3D

 22 26  0  0  0  0  0  0  0  0999 V2000
    2.4167    2.2796   -0.0743 N   0  0  0  0  0  0  0  0  0  0  0  0
   -0.5827    0.0363    0.0600 C   0  0  0  0  0  0  0  0  0  0  0  0
    0.1003   -1.2080    0.1510 C   0  0  0  0  0  0  0  0  0  0  0  0
    0.2423    1.2312    0.1116 C   0  0  0  0  0  0  0  0  0  0  0  0
    1.5278   -1.2763    0.0247 C   0  0  0  0  0  0  0  0  0  0  0  0
   -2.0469    0.0018   -0.0724 C   0  0  0  0  0  0  0  0  0  0  0  0
    2.2744   -0.0825   -0.1091 C   0  0  0  0  0  0  0  0  0  0  0  0
    1.6471    1.1658   -0.0371 C   0  0  0  0  0  0  0  0  0  0  0  0
   -2.7556   -1.2010    0.1719 C   0  0  0  0  0  0  0  0  0  0  0  0
   -0.6683   -2.3725    0.3691 C   0  0  0  0  0  0  0  0  0  0  0  0
   -2.0551   -2.3654    0.4286 C   0  0  0  0  0  0  0  0  0  0  0  0
    2.2613   -2.4978   -0.0012 C   0  0  0  0  0  0  0  0  0  0  0  0
   -0.2565    2.5307    0.3874 C   0  0  0  0  0  0  0  0  0  0  0  0
    3.6812   -0.1651   -0.2716 C   0  0  0  0  0  0  0  0  0  0  0  0
   -2.8631    1.0826   -0.5058 C   0  0  0  0  0  0  0  0  0  0  0  0
   -4.1607   -1.2607    0.1267 C   0  0  0  0  0  0  0  0  0  0  0  0
    3.6470   -2.5512   -0.1582 C   0  0  0  0  0  0  0  0  0  0  0  0
    4.3601   -1.3793   -0.2978 C   0  0  0  0  0  0  0  0  0  0  0  0
   -4.2604    1.0201   -0.5681 C   0  0  0  0  0  0  0  0  0  0  0  0
    0.5377    3.6695    0.3766 C   0  0  0  0  0  0  0  0  0  0  0  0
   -4.9130   -0.1493   -0.2271 C   0  0  0  0  0  0  0  0  0  0  0  0
    1.8663    3.4915    0.1152 C   0  0  0  0  0  0  0  0  0  0  0  0
  1  8  2  0
  1 22  1  0
  2  3  2  0
  2  4  1  0
  2  6  1  0
  3  5  1  0
  3 10  1  0
  4  8  1  0
  4 13  2  0
  5  7  2  0
  5 12  1  0
  6  9  2  0
  6 15  1  0
  7  8  1  0
  7 14  1  0
  9 11  1  0
  9 16  1  0
 10 11  2  0
 12 17  2  0
 13 20  1  0
 14 18  2  0
 15 19  2  0
 16 21  2  0
 17 18  1  0
 19 21  1  0
 20 22  2  0
M  END
>  <PUBCHEM_COMPOUND_CID>  (1) 
9141

>  <PUBCHEM_CONFORMER_RMSD>  (1) 
0.6

>  <PUBCHEM_CONFORMER_DIVERSEORDER>  (1) 
1

>  <PUBCHEM_MMFF94_PARTIAL_CHARGES>  (1) 
28
1 -0.62
10 -0.15
11 -0.15
12 -0.15
13 -0.15
14 -0.15
15 -0.15
16 -0.15
17 -0.15
18 -0.15
19 -0.15
20 -0.15
21 -0.15
22 0.16
23 0.15
24 0.15
25 0.15
26 0.15
27 0.15
28 0.15
29 0.15
30 0.15
31 0.15
32 0.15
33 0.15
34 0.15
35 0.15
8 0.31

>  <PUBCHEM_EFFECTIVE_ROTOR_COUNT>  (1) 
0

>  <PUBCHEM_PHARMACOPHORE_FEATURES>  (1) 
6
1 1 acceptor
6 1 4 8 13 20 22 rings
6 2 3 4 5 7 8 rings
6 2 3 6 9 10 11 rings
6 5 7 12 14 17 18 rings
6 6 9 15 16 19 21 rings

>  <PUBCHEM_HEAVY_ATOM_COUNT>  (1) 
22

>  <PUBCHEM_ATOM_DEF_STEREO_COUNT>  (1) 
0

>  <PUBCHEM_ATOM_UDEF_STEREO_COUNT>  (1) 
0

>  <PUBCHEM_BOND_DEF_STEREO_COUNT>  (1) 
0

>  <PUBCHEM_BOND_UDEF_STEREO_COUNT>  (1) 
0

>  <PUBCHEM_ISOTOPIC_ATOM_COUNT>  (1) 
0

>  <PUBCHEM_COMPONENT_COUNT>  (1) 
1

>  <PUBCHEM_CACTVS_TAUTO_COUNT>  (1) 
1

>  <PUBCHEM_CONFORMER_ID>  (1) 
000023B500000001

>  <PUBCHEM_MMFF94_ENERGY>  (1) 
100.6198

>  <PUBCHEM_FEATURE_SELFOVERLAP>  (1) 
30.543

>  <PUBCHEM_SHAPE_FINGERPRINT>  (1) 
10319926 262 16040263659267192480
10411042 1 18267305339625765810
10608611 8 18264487471927952633
10616163 171 17831861622239821761
10693767 8 18056173814568477799
10906281 52 18269011829195620236
10967382 1 18410856589926158728
1100329 8 18124882248426737401
11578080 2 17344881093384825361
11680986 33 18337955717603571273
116883 192 18125727790264130902
12403259 226 18335416881289397975
12553582 1 18267885920630394706
12788726 201 18120656834157682810
13004483 165 18194953059507905194
13140716 1 18266169724723893944
138480 1 18411419527053109672
14223421 5 18048319135010602163
14790565 3 17403744345810167376
14866123 147 17186159765038317282
15042514 8 17834395623154237730
15081414 286 18341343235856740538
15196674 1 18409449163445248495
15442244 35 18412829070926666129
15475509 8 17771376104653350717
16087824 20 18050853208998107825
16945 1 18194963173796807819
17138139 8 17045655429225753117
17492 89 18268145551414779991
18785283 64 18190465054574204273
19591789 44 18265895748506763737
20510252 161 18053941745628035410
20775438 99 17479406509005977071
21029758 11 18339359669292700871
21267235 1 18338526248143225447
21478907 32 18050851009546954242
221357 26 18409441458885505253
221490 88 18336552728040200995
2334 1 18122629628463383864
23366157 5 17970061347648273544
23402539 116 18198335169827289998
23557571 272 17985549936516613398
23558518 356 17754733059052658683
23559900 14 18412259575432386824
238 59 17903030609372550589
2748010 2 17399524914013460826
3004659 81 18114185173357620646
3091708 16 8996181607518653456
3298306 158 18052267485883056604
335352 9 18338234865177538597
34934 24 18411694400949955434
350125 39 18048886482772975753
3524813 1 18041552551580073181
352729 6 17329987997874548576
5104073 3 18336548326109946171
5939293 188 18411131472275730664
6438718 38 17485641555419803669
6443956 14 18409732850488170884
7364860 26 18339643472363284040
81228 2 17983309131254554104
9709674 26 18264770037842726467
9981440 41 17619056669853802625

>  <PUBCHEM_SHAPE_MULTIPOLES>  (1) 
447.77
7.7
3.97
0.68
3.9
2.84
0
-3.2
1.24
-2.48
-0.53
0.11
0.02
0.52

>  <PUBCHEM_SHAPE_SELFOVERLAP>  (1) 
1041.048

>  <PUBCHEM_SHAPE_VOLUME>  (1) 
222.8

>  <PUBCHEM_COORDINATE_TYPE>  (1) 
2
5
10

$$$$
