915
     RDKit          3D

 20 19  0  0  1  0  0  0  0  0999 V2000
   -0.2905   -2.9962   -1.7199 O   0  0  0  0  0  0  0  0  0  0  0  0
    0.9472   -4.0396   -0.1396 O   0  0  0  0  0  0  0  0  0  0  0  0
   -2.4352   -0.7107    1.8332 O   0  0  0  0  0  0  0  0  0  0  0  0
    3.5832    1.0372   -1.5410 O   0  0  0  0  0  0  0  0  0  0  0  0
    5.5233    2.4768   -0.8056 O   0  0  0  0  0  0  0  0  0  0  0  0
   -6.1061    2.4411    0.3501 O   0  0  0  0  0  0  0  0  0  0  0  0
    5.1303    1.9386    1.3895 O   0  0  0  0  0  0  0  0  0  0  0  0
   -4.8968    2.0853   -1.5392 O   0  0  0  0  0  0  0  0  0  0  0  0
   -1.1958   -1.1306   -0.0881 N   0  0  0  0  0  0  0  0  0  0  0  0
    0.9680   -1.2608    1.0718 C   0  0  0  0  0  0  0  0  0  0  0  0
   -0.2312   -2.0251    0.4968 C   0  0  0  0  0  0  0  0  0  0  0  0
    1.8098   -0.5222    0.0234 C   0  0  0  0  0  0  0  0  0  0  0  0
    2.9500    0.2547    0.6812 C   0  0  0  0  0  0  0  0  0  0  0  0
    0.2028   -3.1207   -0.4644 C   0  0  0  0  0  0  0  0  0  0  0  0
   -2.2270   -0.5421    0.6348 C   0  0  0  0  0  0  0  0  0  0  0  0
   -3.0890    0.3502   -0.2403 C   0  0  0  0  0  0  0  0  0  0  0  0
    3.7651    1.0233   -0.3328 C   0  0  0  0  0  0  0  0  0  0  0  0
   -4.2268    1.0051    0.5362 C   0  0  0  0  0  0  0  0  0  0  0  0
    4.8994    1.8514    0.2006 C   0  0  0  0  0  0  0  0  0  0  0  0
   -5.0809    1.8844   -0.3468 C   0  0  0  0  0  0  0  0  0  0  0  0
  1 14  1  0
  2 14  2  0
  3 15  2  0
  4 17  2  0
  5 19  1  0
  6 20  1  0
  7 19  2  0
  8 20  2  0
  9 11  1  0
  9 15  1  0
 10 11  1  0
 10 12  1  0
 11 14  1  0
 12 13  1  0
 13 17  1  0
 15 16  1  0
 16 18  1  0
 17 19  1  0
 18 20  1  0
M  END
>  <PUBCHEM_COMPOUND_CID>  (1) 
915

>  <PUBCHEM_CONFORMER_RMSD>  (1) 
1

>  <PUBCHEM_CONFORMER_DIVERSEORDER>  (1) 
1
79
131
174
127
18
155
101
165
186
23
12
21
41
6
125
57
182
128
110
19
134
85
87
68
46
20
97
93
104
122
146
40
130
34
11
61
16
67
10
152
106
117
69
151
9
169
2
83
166
163
76
177
144
114
140
73
4
8
82
74
115
175
38
136
129
153
59
17
178
138
111
25
60
72
90
100
49
88
15
187
171
98
52
94
75
91
116
26
27
51
133
141
147
158
92
161
50
109
181
137
179
159
135
108
22
47
160
58
45
120
176
42
107
121
162
119
102
139
113
77
13
84
118
64
124
35
172
105
62
31
48
53
86
168
44
56
37
55
123
167
24
28
170
65
142
32
70
66
164
71
173
180
5
30
95
96
157
154
3
184
126
132
150
43
149
7
33
78
80
148
143
156
14
183
112
81
89
103
185
145
36
29
54
63
39
99

>  <PUBCHEM_MMFF94_PARTIAL_CHARGES>  (1) 
22
1 -0.65
11 0.36
13 0.06
14 0.66
15 0.57
16 0.06
17 0.51
18 0.06
19 0.72
2 -0.57
20 0.66
28 0.37
3 -0.57
33 0.5
34 0.5
35 0.5
4 -0.57
5 -0.65
6 -0.65
7 -0.57
8 -0.57
9 -0.73

>  <PUBCHEM_EFFECTIVE_ROTOR_COUNT>  (1) 
11

>  <PUBCHEM_PHARMACOPHORE_FEATURES>  (1) 
12
1 1 acceptor
1 2 acceptor
1 3 acceptor
1 4 acceptor
1 5 acceptor
1 6 acceptor
1 7 acceptor
1 8 acceptor
1 9 donor
3 1 2 14 anion
3 5 7 19 anion
3 6 8 20 anion

>  <PUBCHEM_HEAVY_ATOM_COUNT>  (1) 
20

>  <PUBCHEM_ATOM_DEF_STEREO_COUNT>  (1) 
0

>  <PUBCHEM_ATOM_UDEF_STEREO_COUNT>  (1) 
1

>  <PUBCHEM_BOND_DEF_STEREO_COUNT>  (1) 
0

>  <PUBCHEM_BOND_UDEF_STEREO_COUNT>  (1) 
0

>  <PUBCHEM_ISOTOPIC_ATOM_COUNT>  (1) 
0

>  <PUBCHEM_COMPONENT_COUNT>  (1) 
1

>  <PUBCHEM_CACTVS_TAUTO_COUNT>  (1) 
4

>  <PUBCHEM_CONFORMER_ID>  (1) 
0000039300000001

>  <PUBCHEM_MMFF94_ENERGY>  (1) 
23.9701

>  <PUBCHEM_FEATURE_SELFOVERLAP>  (1) 
61.092

>  <PUBCHEM_SHAPE_FINGERPRINT>  (1) 
10498660 4 18343587343162660673
105312 117 18340771541212761198
12403259 118 17968099788607656080
12633257 1 15647054905911131800
13103583 49 11242245196053516263
13955234 65 18192999205944409619
1420 369 9079116665362919152
14251764 38 17829600670210317677
14251764 75 18411707586183335705
14774955 27 18335978675949597925
15163728 17 18411992342503783367
15342168 16 18337668621052701349
16120349 189 18335133232653625780
167882 2 18340207388785210342
17834072 32 18409449214916336192
193927 3 9079119981198822272
20645477 56 17984717859390740610
21304303 282 17984959717420749910
21401589 2 18114186328656110689
23559900 14 18122624951408302235
270888 7 18408603664678697777
2838139 119 18261664896477602109
3057174 1 18131356288765386302
314194 84 8862645907129256537
53917941 68 18129369565948424970
6327066 14 18408882966375446700
77188 2 17473262072293287082
7970288 3 9367355829229247744

>  <PUBCHEM_SHAPE_MULTIPOLES>  (1) 
359.66
12.53
3.99
1.31
2.93
3.2
-0.1
-18.49
-0.66
-0.6
-1.12
-0.05
0.05
0.49

>  <PUBCHEM_SHAPE_SELFOVERLAP>  (1) 
708.296

>  <PUBCHEM_SHAPE_VOLUME>  (1) 
211.4

>  <PUBCHEM_COORDINATE_TYPE>  (1) 
2
5
10

$$$$
