9157
     RDKit          3D

 16 19  0  0  0  0  0  0  0  0999 V2000
   -0.5917    2.3666    0.0000 N   0  0  0  0  0  0  0  0  0  0  0  0
   -0.9081   -0.0040    0.0004 C   0  0  0  0  0  0  0  0  0  0  0  0
   -0.1346   -1.1535    0.0004 C   0  0  0  0  0  0  0  0  0  0  0  0
    1.2634   -0.7399    0.0002 C   0  0  0  0  0  0  0  0  0  0  0  0
    1.2767    0.6883    0.0002 C   0  0  0  0  0  0  0  0  0  0  0  0
   -0.1112    1.1181    0.0004 C   0  0  0  0  0  0  0  0  0  0  0  0
   -2.2932    0.0523    0.0001 C   0  0  0  0  0  0  0  0  0  0  0  0
   -0.7746   -2.3766   -0.0001 C   0  0  0  0  0  0  0  0  0  0  0  0
    2.4396   -1.4635    0.0000 C   0  0  0  0  0  0  0  0  0  0  0  0
    2.4622    1.3955   -0.0001 C   0  0  0  0  0  0  0  0  0  0  0  0
   -2.9427   -1.1987   -0.0002 C   0  0  0  0  0  0  0  0  0  0  0  0
   -2.8387    1.3498   -0.0003 C   0  0  0  0  0  0  0  0  0  0  0  0
   -2.1840   -2.3928   -0.0003 C   0  0  0  0  0  0  0  0  0  0  0  0
    3.6409   -0.7477   -0.0002 C   0  0  0  0  0  0  0  0  0  0  0  0
    3.6520    0.6618   -0.0003 C   0  0  0  0  0  0  0  0  0  0  0  0
   -1.9560    2.4444   -0.0002 C   0  0  0  0  0  0  0  0  0  0  0  0
  1  6  2  0
  1 16  1  0
  2  3  2  0
  2  6  1  0
  2  7  1  0
  3  4  1  0
  3  8  1  0
  4  5  2  0
  4  9  1  0
  5  6  1  0
  5 10  1  0
  7 11  2  0
  7 12  1  0
  8 13  2  0
  9 14  2  0
 10 15  2  0
 11 13  1  0
 12 16  2  0
 14 15  1  0
M  END
>  <PUBCHEM_COMPOUND_CID>  (1) 
9157

>  <PUBCHEM_CONFORMER_RMSD>  (1) 
0.4

>  <PUBCHEM_CONFORMER_DIVERSEORDER>  (1) 
1

>  <PUBCHEM_MMFF94_PARTIAL_CHARGES>  (1) 
20
1 -0.62
10 -0.15
11 -0.15
12 -0.15
13 -0.15
14 -0.15
15 -0.15
16 0.16
17 0.15
18 0.15
19 0.15
20 0.15
21 0.15
22 0.15
23 0.15
24 0.15
25 0.15
6 0.31
8 -0.15
9 -0.15

>  <PUBCHEM_EFFECTIVE_ROTOR_COUNT>  (1) 
0

>  <PUBCHEM_PHARMACOPHORE_FEATURES>  (1) 
5
1 1 acceptor
5 2 3 4 5 6 rings
6 1 2 6 7 12 16 rings
6 2 3 7 8 11 13 rings
6 4 5 9 10 14 15 rings

>  <PUBCHEM_HEAVY_ATOM_COUNT>  (1) 
16

>  <PUBCHEM_ATOM_DEF_STEREO_COUNT>  (1) 
0

>  <PUBCHEM_ATOM_UDEF_STEREO_COUNT>  (1) 
0

>  <PUBCHEM_BOND_DEF_STEREO_COUNT>  (1) 
0

>  <PUBCHEM_BOND_UDEF_STEREO_COUNT>  (1) 
0

>  <PUBCHEM_ISOTOPIC_ATOM_COUNT>  (1) 
0

>  <PUBCHEM_COMPONENT_COUNT>  (1) 
1

>  <PUBCHEM_CACTVS_TAUTO_COUNT>  (1) 
1

>  <PUBCHEM_CONFORMER_ID>  (1) 
000023C500000001

>  <PUBCHEM_MMFF94_ENERGY>  (1) 
72.375

>  <PUBCHEM_FEATURE_SELFOVERLAP>  (1) 
25.699

>  <PUBCHEM_SHAPE_FINGERPRINT>  (1) 
10319926 262 18197753610924917906
10411042 1 17906172102708436262
10608611 8 18413103978998523496
10616163 171 18411422834362518070
10967382 1 18266740164688673031
11132069 177 18413102866385566728
11578080 2 17316442324048554476
12382932 28 18412545439728407090
12553582 1 18050852422385596270
12730499 353 17612305252639266565
13140716 1 18410575041739806155
13380535 76 18268988683242413263
14144814 61 18410292501901382106
14614273 12 18115864110074240813
14790565 3 16461380989381581517
15196674 1 18410855464507590094
15309172 13 18194692475009139625
15442244 35 18337105649514063442
16945 1 18410855477466299526
17804303 29 18340771451419387302
193761 8 18410855468876345446
19591789 44 17834684798696047631
19868273 325 18337107994069984013
20510252 161 18343303664793750777
20871998 184 18272936050298117015
21029758 11 18269828878141292591
21267235 1 18337963379878468326
21501502 16 18410012139373890022
2334 1 18410574010958204167
23388829 49 18050566536461174276
23402539 116 18271235110432040447
23463225 33 18337110167571407614
23557571 272 18272100430351368806
23559900 14 18271524175201525254
238 59 16599245977306746661
2748010 2 18411138039106704935
335352 9 18194402182543587734
34934 24 18195518414310358543
352729 6 18339643313380837831
427121 178 16123083938699085139
5104073 3 18411417306881663466
54173680 148 18409731793620514195
69090 78 18339638945568000309
7097593 13 17971173847584772674
7364860 26 17547854517495037913
81228 2 18335702792476903497
8809292 202 18409452470649148754
9709674 26 18342460326896825302

>  <PUBCHEM_SHAPE_MULTIPOLES>  (1) 
324.29
5.32
2.74
0.61
3.1
0.08
0
-0.12
0
-1.65
0
0
-0.01
0

>  <PUBCHEM_SHAPE_SELFOVERLAP>  (1) 
759.264

>  <PUBCHEM_SHAPE_VOLUME>  (1) 
162.1

>  <PUBCHEM_COORDINATE_TYPE>  (1) 
2
5
10

$$$$
