9158
     RDKit          3D

 20 24  0  0  0  0  0  0  0  0999 V2000
    2.0016    0.0000    0.0003 C   0  0  0  0  0  0  0  0  0  0  0  0
   -0.1836   -0.7102    0.0010 C   0  0  0  0  0  0  0  0  0  0  0  0
   -0.1836    0.7102    0.0011 C   0  0  0  0  0  0  0  0  0  0  0  0
    1.2084   -1.1386    0.0006 C   0  0  0  0  0  0  0  0  0  0  0  0
    1.2084    1.1386    0.0006 C   0  0  0  0  0  0  0  0  0  0  0  0
    3.3947    0.0000   -0.0005 C   0  0  0  0  0  0  0  0  0  0  0  0
   -1.3662   -1.4251    0.0005 C   0  0  0  0  0  0  0  0  0  0  0  0
   -1.3663    1.4251    0.0007 C   0  0  0  0  0  0  0  0  0  0  0  0
   -2.5801   -0.7145    0.0000 C   0  0  0  0  0  0  0  0  0  0  0  0
   -2.5801    0.7145    0.0002 C   0  0  0  0  0  0  0  0  0  0  0  0
    1.8147   -2.3809    0.0005 C   0  0  0  0  0  0  0  0  0  0  0  0
    1.8147    2.3809    0.0003 C   0  0  0  0  0  0  0  0  0  0  0  0
    4.0081   -1.2680   -0.0007 C   0  0  0  0  0  0  0  0  0  0  0  0
    4.0081    1.2680   -0.0011 C   0  0  0  0  0  0  0  0  0  0  0  0
    3.2199   -2.4392   -0.0002 C   0  0  0  0  0  0  0  0  0  0  0  0
    3.2199    2.4392   -0.0006 C   0  0  0  0  0  0  0  0  0  0  0  0
   -3.8062   -1.3963   -0.0008 C   0  0  0  0  0  0  0  0  0  0  0  0
   -3.8064    1.3963   -0.0002 C   0  0  0  0  0  0  0  0  0  0  0  0
   -5.0129   -0.6958   -0.0010 C   0  0  0  0  0  0  0  0  0  0  0  0
   -5.0130    0.6958   -0.0004 C   0  0  0  0  0  0  0  0  0  0  0  0
  1  4  2  0
  1  5  1  0
  1  6  1  0
  2  3  1  0
  2  4  1  0
  2  7  2  0
  3  5  1  0
  3  8  2  0
  4 11  1  0
  5 12  2  0
  6 13  2  0
  6 14  1  0
  7  9  1  0
  8 10  1  0
  9 10  2  0
  9 17  1  0
 10 18  1  0
 11 15  2  0
 12 16  1  0
 13 15  1  0
 14 16  2  0
 17 19  2  0
 18 20  2  0
 19 20  1  0
M  END
>  <PUBCHEM_COMPOUND_CID>  (1) 
9158

>  <PUBCHEM_CONFORMER_RMSD>  (1) 
0.6

>  <PUBCHEM_CONFORMER_DIVERSEORDER>  (1) 
1

>  <PUBCHEM_MMFF94_PARTIAL_CHARGES>  (1) 
24
11 -0.15
12 -0.15
13 -0.15
14 -0.15
15 -0.15
16 -0.15
17 -0.15
18 -0.15
19 -0.15
20 -0.15
21 0.15
22 0.15
23 0.15
24 0.15
25 0.15
26 0.15
27 0.15
28 0.15
29 0.15
30 0.15
31 0.15
32 0.15
7 -0.15
8 -0.15

>  <PUBCHEM_EFFECTIVE_ROTOR_COUNT>  (1) 
0

>  <PUBCHEM_PHARMACOPHORE_FEATURES>  (1) 
5
5 1 2 3 4 5 rings
6 1 4 6 11 13 15 rings
6 1 5 6 12 14 16 rings
6 2 3 7 8 9 10 rings
6 9 10 17 18 19 20 rings

>  <PUBCHEM_HEAVY_ATOM_COUNT>  (1) 
20

>  <PUBCHEM_ATOM_DEF_STEREO_COUNT>  (1) 
0

>  <PUBCHEM_ATOM_UDEF_STEREO_COUNT>  (1) 
0

>  <PUBCHEM_BOND_DEF_STEREO_COUNT>  (1) 
0

>  <PUBCHEM_BOND_UDEF_STEREO_COUNT>  (1) 
0

>  <PUBCHEM_ISOTOPIC_ATOM_COUNT>  (1) 
0

>  <PUBCHEM_COMPONENT_COUNT>  (1) 
1

>  <PUBCHEM_CACTVS_TAUTO_COUNT>  (1) 
1

>  <PUBCHEM_CONFORMER_ID>  (1) 
000023C600000001

>  <PUBCHEM_MMFF94_ENERGY>  (1) 
85.4835

>  <PUBCHEM_FEATURE_SELFOVERLAP>  (1) 
25.706

>  <PUBCHEM_SHAPE_FINGERPRINT>  (1) 
10411042 1 17978229362071256962
10608611 8 18408601461460279469
10616163 171 18268149940723260687
10967382 1 18410856607274813444
1100329 8 16749583245791166611
11471102 20 18410572890013918532
11578080 2 13697029261140856220
12107183 9 17837216978617819961
12236239 1 17775004587250424168
12403259 226 18263075535494180348
12403259 415 18040994004295405141
12788726 201 17417824898395442233
13009979 54 17629772179803112250
13140716 1 18194112135044093882
13167823 11 18342455946056401079
13675066 3 18041003946975558611
138480 1 18338516318668901794
14341114 176 18411145723146023897
14790565 3 17976267047179640588
14866123 147 16973367964015523002
15196674 1 18410573989826200587
15230672 131 13867263937243077675
15442244 35 18267868289378071088
15536298 74 18413388734923832449
16945 1 18410575085090333824
17492 89 18411700989245625935
1813 80 17095244713528544429
18186145 218 17749103383593344343
18681886 176 18272927224652227874
19591789 44 18339643450783231871
200 152 18130784568957458075
20645477 70 18342177751959931591
21033648 29 17530956952765355725
21065198 57 18409449168082853763
21267235 1 18339651057133461238
21421861 104 17896592891092172402
21452121 103 18341603854767778184
221490 88 18408611369833871363
22854114 111 18410012160574543412
23366157 5 18113618988939773774
23559900 14 18412539882035483730
2748010 2 17761220216738218058
335352 9 18338516318130767103
33824 294 18409447016246125354
34934 24 18342734160720150990
350125 39 18410294683576294620
3545911 37 18409731785336346261
3886686 26 16244592936191907650
4214541 1 18410575046573038049
474 4 17968380168441630732
5104073 3 18410294705340840603
543358 83 18412268298305087232
59755656 215 18411140255869096460
602551 16 16009327512011337947
6443956 14 18337393747256309692
7364860 26 18412545409900934656
77779 3 18410575085127257099
8272917 22 18412549811984138798
9709674 26 18408609183943619379
9981440 41 17832983128501175016

>  <PUBCHEM_SHAPE_MULTIPOLES>  (1) 
411.59
9.33
2.62
0.62
7.18
0
0
0
0
-2.34
0
0
0
0

>  <PUBCHEM_SHAPE_SELFOVERLAP>  (1) 
970.982

>  <PUBCHEM_SHAPE_VOLUME>  (1) 
192.2

>  <PUBCHEM_COORDINATE_TYPE>  (1) 
2
5
10

$$$$
