9160
     RDKit          3D

 21 25  0  0  0  0  0  0  0  0999 V2000
   -0.5665   -1.7427    0.0003 N   0  0  0  0  0  0  0  0  0  0  0  0
    1.0120   -0.1559    0.0001 C   0  0  0  0  0  0  0  0  0  0  0  0
   -0.2968    0.4654    0.0001 C   0  0  0  0  0  0  0  0  0  0  0  0
   -1.2548   -0.5542    0.0000 C   0  0  0  0  0  0  0  0  0  0  0  0
    0.7894   -1.5350    0.0002 C   0  0  0  0  0  0  0  0  0  0  0  0
    2.3765    0.3007    0.0001 C   0  0  0  0  0  0  0  0  0  0  0  0
   -2.6529   -0.3034   -0.0001 C   0  0  0  0  0  0  0  0  0  0  0  0
    3.4252   -0.6617   -0.0002 C   0  0  0  0  0  0  0  0  0  0  0  0
   -3.0861    1.0415   -0.0002 C   0  0  0  0  0  0  0  0  0  0  0  0
   -0.7675    1.7983    0.0000 C   0  0  0  0  0  0  0  0  0  0  0  0
    1.8142   -2.4840    0.0000 C   0  0  0  0  0  0  0  0  0  0  0  0
   -2.1423    2.0711   -0.0001 C   0  0  0  0  0  0  0  0  0  0  0  0
    3.1296   -2.0268   -0.0002 C   0  0  0  0  0  0  0  0  0  0  0  0
    2.7262    1.6691    0.0002 C   0  0  0  0  0  0  0  0  0  0  0  0
   -3.5950   -1.3521   -0.0001 C   0  0  0  0  0  0  0  0  0  0  0  0
    4.7621   -0.2330   -0.0002 C   0  0  0  0  0  0  0  0  0  0  0  0
   -4.4647    1.3065   -0.0001 C   0  0  0  0  0  0  0  0  0  0  0  0
    4.0632    2.0723    0.0001 C   0  0  0  0  0  0  0  0  0  0  0  0
   -4.9587   -1.0623    0.0001 C   0  0  0  0  0  0  0  0  0  0  0  0
    5.0787    1.1240   -0.0001 C   0  0  0  0  0  0  0  0  0  0  0  0
   -5.3920    0.2619    0.0000 C   0  0  0  0  0  0  0  0  0  0  0  0
  1  4  1  0
  1  5  1  0
  2  3  1  0
  2  5  2  0
  2  6  1  0
  3  4  2  0
  3 10  1  0
  4  7  1  0
  5 11  1  0
  6  8  2  0
  6 14  1  0
  7  9  2  0
  7 15  1  0
  8 13  1  0
  8 16  1  0
  9 12  1  0
  9 17  1  0
 10 12  2  0
 11 13  2  0
 14 18  2  0
 15 19  2  0
 16 20  2  0
 17 21  2  0
 18 20  1  0
 19 21  1  0
M  END
>  <PUBCHEM_COMPOUND_CID>  (1) 
9160

>  <PUBCHEM_CONFORMER_RMSD>  (1) 
0.6

>  <PUBCHEM_CONFORMER_DIVERSEORDER>  (1) 
1

>  <PUBCHEM_MMFF94_PARTIAL_CHARGES>  (1) 
28
1 0.03
10 -0.15
11 -0.15
12 -0.15
13 -0.15
14 -0.15
15 -0.15
16 -0.15
17 -0.15
18 -0.15
19 -0.15
20 -0.15
21 -0.15
22 0.27
23 0.15
24 0.15
25 0.15
26 0.15
27 0.15
28 0.15
29 0.15
30 0.15
31 0.15
32 0.15
33 0.15
34 0.15
4 -0.15
5 -0.15

>  <PUBCHEM_EFFECTIVE_ROTOR_COUNT>  (1) 
0

>  <PUBCHEM_PHARMACOPHORE_FEATURES>  (1) 
7
1 1 cation
1 1 donor
5 1 2 3 4 5 rings
6 2 5 6 8 11 13 rings
6 3 4 7 9 10 12 rings
6 6 8 14 16 18 20 rings
6 7 9 15 17 19 21 rings

>  <PUBCHEM_HEAVY_ATOM_COUNT>  (1) 
21

>  <PUBCHEM_ATOM_DEF_STEREO_COUNT>  (1) 
0

>  <PUBCHEM_ATOM_UDEF_STEREO_COUNT>  (1) 
0

>  <PUBCHEM_BOND_DEF_STEREO_COUNT>  (1) 
0

>  <PUBCHEM_BOND_UDEF_STEREO_COUNT>  (1) 
0

>  <PUBCHEM_ISOTOPIC_ATOM_COUNT>  (1) 
0

>  <PUBCHEM_COMPONENT_COUNT>  (1) 
1

>  <PUBCHEM_CACTVS_TAUTO_COUNT>  (1) 
1

>  <PUBCHEM_CONFORMER_ID>  (1) 
000023C800000001

>  <PUBCHEM_MMFF94_ENERGY>  (1) 
62.8421

>  <PUBCHEM_FEATURE_SELFOVERLAP>  (1) 
35.741

>  <PUBCHEM_SHAPE_FINGERPRINT>  (1) 
10 15 18336537340011409880
10090160 65 18260261979643416991
10411042 1 17762338011937258998
10616163 171 18412826914800537447
10967382 1 18410573989852684772
11578080 2 17024856074977891551
12107183 9 17691691086742160857
12403259 226 18191018998381989716
12403259 415 18187080616013046637
12788726 201 17202772475707095537
13009979 54 17485931826906326834
13140716 1 17977949308226704184
13224815 77 18410575067625654057
13533116 47 17168414965931016058
138480 1 17906170646951776330
14341114 176 18410017606587689507
14528608 73 18412825815087929998
14787075 74 18410290354391327867
14790565 3 18339648939778050249
15196674 1 18410573967992700453
15536298 74 18413109433321990406
15927050 60 17261315216049845309
17349148 13 18040152937312072101
17492 89 18339360747388365419
1813 80 17095529478492343389
18681886 176 18412260671197751536
19591789 44 18196090177668267217
200 152 18202280299473602769
20645477 70 18343022147157738278
21267235 1 18411145718360770894
21421861 104 17970060054610183506
21652331 79 18410292510227715421
221490 88 18337961086439746386
23227448 37 18342456001511181086
23366157 5 18042127566213095218
23402539 116 18341044202800548943
23559900 14 18196367018238654610
239999 70 18272939302100043662
245318 6 17099481299530120252
335352 9 18410575089944717590
34797466 226 17560809865389355749
34934 24 18410851054193453079
350125 39 18410011022935789060
3545911 37 18409168805012159861
4073 2 18041005067477200939
4214541 1 18410855417484729761
474 4 17967539007934420636
474229 33 18410855490214239759
5104073 3 18337392647380523371
5283173 99 18041829603041701517
59755656 215 18411142424753799502
67856867 119 18336819815050465626
7364860 26 18341050705861225654
77779 3 18411419479829159147
8272917 22 18341616979887381518
9709674 26 18410018701720558082

>  <PUBCHEM_SHAPE_MULTIPOLES>  (1) 
427.19
10.96
2.44
0.61
2.93
0.2
0
-1.83
0
-1.07
0
0
-0.01
0

>  <PUBCHEM_SHAPE_SELFOVERLAP>  (1) 
996.444

>  <PUBCHEM_SHAPE_VOLUME>  (1) 
217.4

>  <PUBCHEM_COORDINATE_TYPE>  (1) 
2
5
10

$$$$
