917
     RDKit          3D

 11 12  0  0  1  0  0  0  0  0999 V2000
    1.9413    0.0358   -0.1140 N   0  0  0  0  0  0  0  0  0  0  0  0
    0.0477    1.6667    0.5677 N   0  0  0  0  0  0  0  0  0  0  0  0
   -1.6027   -1.1925   -0.4623 N   0  0  0  0  0  0  0  0  0  0  0  0
    1.1434   -1.9020    1.1044 N   0  0  0  0  0  0  0  0  0  0  0  0
   -2.2014    0.8990    0.0644 N   0  0  0  0  0  0  0  0  0  0  0  0
    0.9410   -1.0767   -0.0903 C   0  0  0  0  0  0  0  0  0  0  0  0
   -0.4540   -0.5416   -0.1177 C   0  0  0  0  0  0  0  0  0  0  0  0
    1.4415    1.2096    0.6770 C   0  0  0  0  0  0  0  0  0  0  0  0
   -0.8548    0.7367    0.1973 C   0  0  0  0  0  0  0  0  0  0  0  0
    2.2238    0.4495   -1.4928 C   0  0  0  0  0  0  0  0  0  0  0  0
   -2.6259   -0.2847   -0.3338 C   0  0  0  0  0  0  0  0  0  0  0  0
  1  6  1  0
  1  8  1  0
  1 10  1  0
  2  8  1  0
  2  9  1  0
  3  7  1  0
  3 11  1  0
  4  6  1  0
  5  9  1  0
  5 11  2  0
  6  7  1  0
  7  9  2  0
M  END
>  <PUBCHEM_COMPOUND_CID>  (1) 
917

>  <PUBCHEM_CONFORMER_RMSD>  (1) 
0.4

>  <PUBCHEM_CONFORMER_DIVERSEORDER>  (1) 
4
2
3
1
5
6

>  <PUBCHEM_MMFF94_PARTIAL_CHARGES>  (1) 
16
1 -0.81
10 0.27
11 0.04
15 0.4
19 0.27
2 -0.85
20 0.36
21 0.36
22 0.15
3 0.03
4 -0.99
5 -0.57
6 0.72
7 -0.33
8 0.64
9 0.31

>  <PUBCHEM_EFFECTIVE_ROTOR_COUNT>  (1) 
0.8

>  <PUBCHEM_PHARMACOPHORE_FEATURES>  (1) 
9
1 1 cation
1 2 cation
1 2 donor
1 3 donor
1 4 cation
1 4 donor
3 3 5 11 cation
5 3 5 7 9 11 rings
6 1 2 6 7 8 9 rings

>  <PUBCHEM_HEAVY_ATOM_COUNT>  (1) 
11

>  <PUBCHEM_ATOM_DEF_STEREO_COUNT>  (1) 
0

>  <PUBCHEM_ATOM_UDEF_STEREO_COUNT>  (1) 
1

>  <PUBCHEM_BOND_DEF_STEREO_COUNT>  (1) 
0

>  <PUBCHEM_BOND_UDEF_STEREO_COUNT>  (1) 
0

>  <PUBCHEM_ISOTOPIC_ATOM_COUNT>  (1) 
0

>  <PUBCHEM_COMPONENT_COUNT>  (1) 
1

>  <PUBCHEM_CACTVS_TAUTO_COUNT>  (1) 
2

>  <PUBCHEM_CONFORMER_ID>  (1) 
0000039500000004

>  <PUBCHEM_MMFF94_ENERGY>  (1) 
21.6217

>  <PUBCHEM_FEATURE_SELFOVERLAP>  (1) 
45.825

>  <PUBCHEM_SHAPE_FINGERPRINT>  (1) 
12423570 1 11655290061662804968
12897270 3 18343023319414433885
14128692 85 18265332794416922970
16945 1 18271812353635423021
18185500 45 18338513015316850834
21040471 1 18337669814404788954
23211744 25 18265063602840612798
23552423 10 18261112915812521927
241688 4 18271531991002709160
2748010 2 17908135839154320709
5084963 1 18040991860462996494

>  <PUBCHEM_SHAPE_MULTIPOLES>  (1) 
201.47
3.15
1.62
1
0.92
0.18
-0.16
-0.16
-0.83
-0.25
0.5
-0.61
0.06
-0.27

>  <PUBCHEM_SHAPE_SELFOVERLAP>  (1) 
425.962

>  <PUBCHEM_SHAPE_VOLUME>  (1) 
112

>  <PUBCHEM_COORDINATE_TYPE>  (1) 
2
5
10

$$$$
