9174
     RDKit          3D

 18 21  0  0  0  0  0  0  0  0999 V2000
   -2.6945    1.4434    0.0001 N   0  0  0  0  0  0  0  0  0  0  0  0
    0.4195   -0.5977    0.0000 C   0  0  0  0  0  0  0  0  0  0  0  0
   -0.4577    0.5247    0.0000 C   0  0  0  0  0  0  0  0  0  0  0  0
    1.8485   -0.3996    0.0001 C   0  0  0  0  0  0  0  0  0  0  0  0
   -1.8655    0.3731    0.0000 C   0  0  0  0  0  0  0  0  0  0  0  0
    2.3639    0.9204    0.0000 C   0  0  0  0  0  0  0  0  0  0  0  0
   -2.4031   -0.9284   -0.0001 C   0  0  0  0  0  0  0  0  0  0  0  0
   -0.1783   -1.8737    0.0001 C   0  0  0  0  0  0  0  0  0  0  0  0
    0.1100    1.8092    0.0001 C   0  0  0  0  0  0  0  0  0  0  0  0
    1.4885    2.0047    0.0001 C   0  0  0  0  0  0  0  0  0  0  0  0
   -1.5604   -2.0383    0.0001 C   0  0  0  0  0  0  0  0  0  0  0  0
    2.8040   -1.4489    0.0001 C   0  0  0  0  0  0  0  0  0  0  0  0
    3.7504    1.1526   -0.0001 C   0  0  0  0  0  0  0  0  0  0  0  0
   -3.7958   -1.0929   -0.0001 C   0  0  0  0  0  0  0  0  0  0  0  0
    4.1808   -1.2066   -0.0001 C   0  0  0  0  0  0  0  0  0  0  0  0
    4.6544    0.0955   -0.0002 C   0  0  0  0  0  0  0  0  0  0  0  0
   -4.6312    0.0114   -0.0001 C   0  0  0  0  0  0  0  0  0  0  0  0
   -4.0334    1.2509   -0.0001 C   0  0  0  0  0  0  0  0  0  0  0  0
  1  5  2  0
  1 18  1  0
  2  3  2  0
  2  4  1  0
  2  8  1  0
  3  5  1  0
  3  9  1  0
  4  6  2  0
  4 12  1  0
  5  7  1  0
  6 10  1  0
  6 13  1  0
  7 11  1  0
  7 14  2  0
  8 11  2  0
  9 10  2  0
 12 15  2  0
 13 16  2  0
 14 17  1  0
 15 16  1  0
 17 18  2  0
M  END
>  <PUBCHEM_COMPOUND_CID>  (1) 
9174

>  <PUBCHEM_CONFORMER_RMSD>  (1) 
0.4

>  <PUBCHEM_CONFORMER_DIVERSEORDER>  (1) 
1

>  <PUBCHEM_MMFF94_PARTIAL_CHARGES>  (1) 
24
1 -0.62
10 -0.15
11 -0.15
12 -0.15
13 -0.15
14 -0.15
15 -0.15
16 -0.15
17 -0.15
18 0.16
19 0.15
20 0.15
21 0.15
22 0.15
23 0.15
24 0.15
25 0.15
26 0.15
27 0.15
28 0.15
29 0.15
5 0.31
8 -0.15
9 -0.15

>  <PUBCHEM_EFFECTIVE_ROTOR_COUNT>  (1) 
0

>  <PUBCHEM_PHARMACOPHORE_FEATURES>  (1) 
5
1 1 acceptor
6 1 5 7 14 17 18 rings
6 2 3 4 6 9 10 rings
6 2 3 5 7 8 11 rings
6 4 6 12 13 15 16 rings

>  <PUBCHEM_HEAVY_ATOM_COUNT>  (1) 
18

>  <PUBCHEM_ATOM_DEF_STEREO_COUNT>  (1) 
0

>  <PUBCHEM_ATOM_UDEF_STEREO_COUNT>  (1) 
0

>  <PUBCHEM_BOND_DEF_STEREO_COUNT>  (1) 
0

>  <PUBCHEM_BOND_UDEF_STEREO_COUNT>  (1) 
0

>  <PUBCHEM_ISOTOPIC_ATOM_COUNT>  (1) 
0

>  <PUBCHEM_COMPONENT_COUNT>  (1) 
1

>  <PUBCHEM_CACTVS_TAUTO_COUNT>  (1) 
1

>  <PUBCHEM_CONFORMER_ID>  (1) 
000023D600000001

>  <PUBCHEM_MMFF94_ENERGY>  (1) 
65.3704

>  <PUBCHEM_FEATURE_SELFOVERLAP>  (1) 
25.449

>  <PUBCHEM_SHAPE_FINGERPRINT>  (1) 
10062212 137 18343294877549307623
10411042 1 16177070789000226351
10608611 8 18339640147911085816
10616163 171 18268151031544688174
10967382 1 18410573959582237350
11132069 177 18411414007956415136
11471102 20 18410571794939682878
11578080 2 16914525842592478347
12011746 2 18410573972266562646
12251169 10 18410574010926536230
12403259 226 18339918333481060809
12403814 3 17676485042767205117
13140716 1 18410856576819672130
13221675 6 18408884057254577858
13675066 3 18408886273457527346
13862211 1 18410568466150572514
14115302 16 18186812399974574206
14178342 30 17980180204951764978
14790565 3 18266748986763333665
14866123 147 17192081756472268394
15099037 51 18410573972419686119
15196674 1 18410573989446424934
15375358 24 18343582945300720166
15442244 35 18411136931010417232
15536298 74 18342457058294421720
16945 1 18122625221420691270
17804303 29 18411704308969755613
1813 80 17168143438409740476
18186145 218 18040147413957833670
18522853 276 18413951689172370608
19591789 44 18337389327339459434
200 152 17989202659893099455
20510252 161 18272371932050385201
20645477 70 18341895164834812478
21029758 11 18343298171736489129
21267235 1 18410583881094068522
21279426 13 18194401091368518118
21421861 104 17823971239421409890
21501502 16 18266741470358750694
221490 88 18263650738867640059
2334 1 18410856594004809186
23402539 116 18272080591443786927
23463225 33 18409449184993632692
23559900 14 18271804657719095760
2748010 2 18410855464428410494
3004659 81 18260834748936731366
335352 9 18338797801671006110
34934 24 18411694426772149474
350125 39 18410578383952758569
3545911 37 18411702101298361256
4214541 1 18410575076263223777
474 4 17241615107654491052
495365 180 17417798578729863096
5104073 3 18410575101842955570
537710 114 18411142437359139180
69090 78 18341891909138656687
7364860 26 18269835492270109408
77779 3 18410294717787930626
7832392 63 18340483473529881126
8809292 202 18261677072636007363
9709674 26 18412269470821213726
9981440 41 17254836893338964640

>  <PUBCHEM_SHAPE_MULTIPOLES>  (1) 
365.45
8.61
2.12
0.61
0.12
0.02
0
-0.02
0
-0.02
0
-0.01
0.01
0

>  <PUBCHEM_SHAPE_SELFOVERLAP>  (1) 
842.811

>  <PUBCHEM_SHAPE_VOLUME>  (1) 
184.4

>  <PUBCHEM_COORDINATE_TYPE>  (1) 
2
5
10

$$$$
