9179
     RDKit          3D

 18 21  0  0  0  0  0  0  0  0999 V2000
   -4.0517   -0.4188    0.0000 N   0  0  0  0  0  0  0  0  0  0  0  0
   -0.3578    0.0863    0.0000 C   0  0  0  0  0  0  0  0  0  0  0  0
    0.0413   -1.2694    0.0000 C   0  0  0  0  0  0  0  0  0  0  0  0
   -1.7649    0.3985   -0.0001 C   0  0  0  0  0  0  0  0  0  0  0  0
    2.0433    0.7151   -0.0001 C   0  0  0  0  0  0  0  0  0  0  0  0
    2.4109   -0.6429    0.0002 C   0  0  0  0  0  0  0  0  0  0  0  0
    0.6772    1.0561   -0.0001 C   0  0  0  0  0  0  0  0  0  0  0  0
    1.4037   -1.6172    0.0004 C   0  0  0  0  0  0  0  0  0  0  0  0
   -2.7242   -0.6408   -0.0003 C   0  0  0  0  0  0  0  0  0  0  0  0
   -0.9293   -2.2722   -0.0003 C   0  0  0  0  0  0  0  0  0  0  0  0
   -2.2850   -1.9537   -0.0004 C   0  0  0  0  0  0  0  0  0  0  0  0
   -2.2901    1.7116    0.0001 C   0  0  0  0  0  0  0  0  0  0  0  0
    3.0489    1.6973   -0.0005 C   0  0  0  0  0  0  0  0  0  0  0  0
    3.7728   -0.9902    0.0005 C   0  0  0  0  0  0  0  0  0  0  0  0
    4.3973    1.3391   -0.0002 C   0  0  0  0  0  0  0  0  0  0  0  0
    4.7590   -0.0040    0.0000 C   0  0  0  0  0  0  0  0  0  0  0  0
   -3.6591    1.9496    0.0004 C   0  0  0  0  0  0  0  0  0  0  0  0
   -4.4921    0.8557    0.0002 C   0  0  0  0  0  0  0  0  0  0  0  0
  1  9  2  0
  1 18  1  0
  2  3  2  0
  2  4  1  0
  2  7  1  0
  3  8  1  0
  3 10  1  0
  4  9  1  0
  4 12  2  0
  5  6  1  0
  5  7  2  0
  5 13  1  0
  6  8  2  0
  6 14  1  0
  9 11  1  0
 10 11  2  0
 12 17  1  0
 13 15  2  0
 14 16  2  0
 15 16  1  0
 17 18  2  0
M  END
>  <PUBCHEM_COMPOUND_CID>  (1) 
9179

>  <PUBCHEM_CONFORMER_RMSD>  (1) 
0.4

>  <PUBCHEM_CONFORMER_DIVERSEORDER>  (1) 
1

>  <PUBCHEM_MMFF94_PARTIAL_CHARGES>  (1) 
24
1 -0.62
10 -0.15
11 -0.15
12 -0.15
13 -0.15
14 -0.15
15 -0.15
16 -0.15
17 -0.15
18 0.16
19 0.15
20 0.15
21 0.15
22 0.15
23 0.15
24 0.15
25 0.15
26 0.15
27 0.15
28 0.15
29 0.15
7 -0.15
8 -0.15
9 0.31

>  <PUBCHEM_EFFECTIVE_ROTOR_COUNT>  (1) 
0

>  <PUBCHEM_PHARMACOPHORE_FEATURES>  (1) 
5
1 1 acceptor
6 1 4 9 12 17 18 rings
6 2 3 4 9 10 11 rings
6 2 3 5 6 7 8 rings
6 5 6 13 14 15 16 rings

>  <PUBCHEM_HEAVY_ATOM_COUNT>  (1) 
18

>  <PUBCHEM_ATOM_DEF_STEREO_COUNT>  (1) 
0

>  <PUBCHEM_ATOM_UDEF_STEREO_COUNT>  (1) 
0

>  <PUBCHEM_BOND_DEF_STEREO_COUNT>  (1) 
0

>  <PUBCHEM_BOND_UDEF_STEREO_COUNT>  (1) 
0

>  <PUBCHEM_ISOTOPIC_ATOM_COUNT>  (1) 
0

>  <PUBCHEM_COMPONENT_COUNT>  (1) 
1

>  <PUBCHEM_CACTVS_TAUTO_COUNT>  (1) 
1

>  <PUBCHEM_CONFORMER_ID>  (1) 
000023DB00000001

>  <PUBCHEM_MMFF94_ENERGY>  (1) 
63.0528

>  <PUBCHEM_FEATURE_SELFOVERLAP>  (1) 
25.449

>  <PUBCHEM_SHAPE_FINGERPRINT>  (1) 
10411042 1 17257653851199373658
10608611 8 18340485659673587528
10616163 171 18339644550347698214
10646746 165 18411420622411798748
10967382 1 18338797814566463556
11132069 177 18410289229025558680
11471102 20 18411979139943094380
12173636 292 18411415133105991191
12390115 104 18128273224217880513
12403814 3 17748821917111538717
12500047 106 18412821412767608864
12644460 14 18115027377114038138
13140716 1 18409160022342032066
13380535 76 18412263921733750359
138480 1 17617940231755098723
14790565 3 18269282270470757513
14866123 147 16904699082532443810
15042514 8 18193280917255246931
15196674 1 18410855464433743558
15375358 24 18272370871393747502
15442244 35 18337669711853302514
15536298 74 18341895177867017390
16945 1 18266741466085109575
17492 89 18410012169413339794
18186145 218 18270687463019690140
200 152 17775563148026837367
20510252 161 18343024402073253225
20645477 56 18409731776445809261
20645477 70 17203338762865676558
21267235 1 18410302418701566410
21501502 16 18410006671722513534
21524375 3 18411699863689153719
23227448 37 18412543249242306335
23402539 116 18343293773652892573
23402655 69 18343863303359080620
23559900 14 18272089358332140678
2748010 2 18410864234867913847
3004659 81 18262246513472137646
335352 9 18338516318668980182
350125 39 18410859893120201201
3545911 37 18411984663144618284
4028521 119 18334850611189230309
4214541 1 18410855464497196484
474 4 17459194143607321932
495365 180 17418081149107863512
4990 188 18060145319033591220
5104073 3 18409449189098735794
633830 44 18128537072506000477
69090 78 18412542115365807975
7364860 26 18196372524492346606
77779 3 18410294722315071468
9709674 26 18341337755273249358

>  <PUBCHEM_SHAPE_MULTIPOLES>  (1) 
365.45
8.83
2.25
0.61
2.03
0.32
0
-3.1
0
-0.75
0
0.02
0
0

>  <PUBCHEM_SHAPE_SELFOVERLAP>  (1) 
842.625

>  <PUBCHEM_SHAPE_VOLUME>  (1) 
185.7

>  <PUBCHEM_COORDINATE_TYPE>  (1) 
2
5
10

$$$$
