9180
     RDKit          3D

 18 21  0  0  0  0  0  0  0  0999 V2000
   -1.4070    1.5766    0.0000 N   0  0  0  0  0  0  0  0  0  0  0  0
    0.3453   -0.0986   -0.0005 C   0  0  0  0  0  0  0  0  0  0  0  0
    1.7566   -0.3904   -0.0005 C   0  0  0  0  0  0  0  0  0  0  0  0
   -0.1042    1.2367   -0.0003 C   0  0  0  0  0  0  0  0  0  0  0  0
    2.6774    0.6849   -0.0002 C   0  0  0  0  0  0  0  0  0  0  0  0
   -0.6724   -1.0765   -0.0007 C   0  0  0  0  0  0  0  0  0  0  0  0
   -2.0313   -0.7345   -0.0004 C   0  0  0  0  0  0  0  0  0  0  0  0
   -2.3574    0.6267    0.0000 C   0  0  0  0  0  0  0  0  0  0  0  0
    0.8332    2.2564    0.0000 C   0  0  0  0  0  0  0  0  0  0  0  0
    2.2013    1.9963   -0.0001 C   0  0  0  0  0  0  0  0  0  0  0  0
    2.3034   -1.6983   -0.0002 C   0  0  0  0  0  0  0  0  0  0  0  0
    4.0621    0.4435    0.0004 C   0  0  0  0  0  0  0  0  0  0  0  0
   -3.0459   -1.7088   -0.0002 C   0  0  0  0  0  0  0  0  0  0  0  0
   -3.7043    0.9814    0.0006 C   0  0  0  0  0  0  0  0  0  0  0  0
    3.6821   -1.9266    0.0005 C   0  0  0  0  0  0  0  0  0  0  0  0
    4.5619   -0.8551    0.0007 C   0  0  0  0  0  0  0  0  0  0  0  0
   -4.3855   -1.3314    0.0002 C   0  0  0  0  0  0  0  0  0  0  0  0
   -4.7152    0.0176    0.0007 C   0  0  0  0  0  0  0  0  0  0  0  0
  1  4  2  0
  1  8  1  0
  2  3  1  0
  2  4  1  0
  2  6  2  0
  3  5  2  0
  3 11  1  0
  4  9  1  0
  5 10  1  0
  5 12  1  0
  6  7  1  0
  7  8  2  0
  7 13  1  0
  8 14  1  0
  9 10  2  0
 11 15  2  0
 12 16  2  0
 13 17  2  0
 14 18  2  0
 15 16  1  0
 17 18  1  0
M  END
>  <PUBCHEM_COMPOUND_CID>  (1) 
9180

>  <PUBCHEM_CONFORMER_RMSD>  (1) 
0.4

>  <PUBCHEM_CONFORMER_DIVERSEORDER>  (1) 
1

>  <PUBCHEM_MMFF94_PARTIAL_CHARGES>  (1) 
25
1 -0.62
10 -0.15
11 -0.15
12 -0.15
13 -0.15
14 -0.15
15 -0.15
16 -0.15
17 -0.15
18 -0.15
19 0.15
20 0.15
21 0.15
22 0.15
23 0.15
24 0.15
25 0.15
26 0.15
27 0.15
28 0.15
29 0.15
4 0.31
6 -0.15
8 0.31
9 -0.15

>  <PUBCHEM_EFFECTIVE_ROTOR_COUNT>  (1) 
0

>  <PUBCHEM_PHARMACOPHORE_FEATURES>  (1) 
5
1 1 acceptor
6 1 2 4 6 7 8 rings
6 2 3 4 5 9 10 rings
6 3 5 11 12 15 16 rings
6 7 8 13 14 17 18 rings

>  <PUBCHEM_HEAVY_ATOM_COUNT>  (1) 
18

>  <PUBCHEM_ATOM_DEF_STEREO_COUNT>  (1) 
0

>  <PUBCHEM_ATOM_UDEF_STEREO_COUNT>  (1) 
0

>  <PUBCHEM_BOND_DEF_STEREO_COUNT>  (1) 
0

>  <PUBCHEM_BOND_UDEF_STEREO_COUNT>  (1) 
0

>  <PUBCHEM_ISOTOPIC_ATOM_COUNT>  (1) 
0

>  <PUBCHEM_COMPONENT_COUNT>  (1) 
1

>  <PUBCHEM_CACTVS_TAUTO_COUNT>  (1) 
1

>  <PUBCHEM_CONFORMER_ID>  (1) 
000023DC00000001

>  <PUBCHEM_MMFF94_ENERGY>  (1) 
62.9144

>  <PUBCHEM_FEATURE_SELFOVERLAP>  (1) 
25.454

>  <PUBCHEM_SHAPE_FINGERPRINT>  (1) 
10062212 137 18273210915699889135
10616163 171 18269276927177837935
10967382 1 18338797930567523302
11471102 20 18410008862108205900
11806522 49 18408886243677586198
12032990 46 18410576175621714860
12236239 1 17846780724161482111
12403259 226 18410287047520295597
13140716 1 18412270553621866785
13288520 33 18340208501270858766
13862211 1 18410568474782737618
14115302 16 17749119910384925886
14252887 29 17918000451589517198
14790565 3 17832711540729576932
14866123 147 17406278728627259466
15196674 1 18410573993746686468
15352361 1 18410855426090495118
15442244 35 18411984628695222233
15536298 74 18342174500780360608
16945 1 18266741470390593892
17492 89 18339360897949682103
17804303 29 18412266129510288901
1813 80 17385724694570519732
18186145 218 17676479571152929867
18522853 276 18341892991422786648
19141452 34 18342176674529756023
200 152 18131066052392292991
20281475 54 18410295808767938437
20645477 70 18336262439521294183
21029758 11 18413103944512256073
21267235 1 18411146830731004718
21421861 104 17824538565635262954
221490 88 18263369246774474155
23366157 5 18041559273125237372
23402539 116 18341886372846613095
23463225 33 18411420613410407548
23559900 14 18411975879936595584
2748010 2 18338507565203883804
2871803 45 18333728005211268462
3004659 81 18187085019061243966
335352 9 18338798897431160917
34934 24 18412256255485892438
4214541 1 18410573964119849733
4921388 177 16081663265443274547
5104073 3 18411699893679923313
633830 44 17168143468464084885
7364860 26 18341611585466512408
77779 3 18410294717956826627
8809292 202 18260833721505702187
9709674 26 18263647423411727123
9981440 41 17400637619791930921

>  <PUBCHEM_SHAPE_MULTIPOLES>  (1) 
365.45
8.96
2.21
0.61
2.31
0.31
0
-2.96
0
-0.75
0
-0.01
-0.01
0

>  <PUBCHEM_SHAPE_SELFOVERLAP>  (1) 
843.176

>  <PUBCHEM_SHAPE_VOLUME>  (1) 
186.2

>  <PUBCHEM_COORDINATE_TYPE>  (1) 
2
5
10

$$$$
