9181
     RDKit          3D

 18 21  0  0  0  0  0  0  0  0999 V2000
    0.6301   -0.9944    0.0007 N   0  0  0  0  0  0  0  0  0  0  0  0
   -0.3192   -0.0301    0.0005 C   0  0  0  0  0  0  0  0  0  0  0  0
    0.0493    1.3275    0.0002 C   0  0  0  0  0  0  0  0  0  0  0  0
   -1.6945   -0.3532    0.0004 C   0  0  0  0  0  0  0  0  0  0  0  0
   -2.6755    0.6720    0.0001 C   0  0  0  0  0  0  0  0  0  0  0  0
    2.3822    0.6473   -0.0001 C   0  0  0  0  0  0  0  0  0  0  0  0
    1.4106    1.6506    0.0000 C   0  0  0  0  0  0  0  0  0  0  0  0
    1.9403   -0.6829    0.0003 C   0  0  0  0  0  0  0  0  0  0  0  0
   -0.9237    2.3346    0.0002 C   0  0  0  0  0  0  0  0  0  0  0  0
   -2.2746    2.0094    0.0001 C   0  0  0  0  0  0  0  0  0  0  0  0
   -2.1450   -1.6907    0.0002 C   0  0  0  0  0  0  0  0  0  0  0  0
   -4.0410    0.3412   -0.0003 C   0  0  0  0  0  0  0  0  0  0  0  0
    3.7570    0.9428   -0.0006 C   0  0  0  0  0  0  0  0  0  0  0  0
    2.8995   -1.6922    0.0005 C   0  0  0  0  0  0  0  0  0  0  0  0
   -3.5058   -2.0047   -0.0005 C   0  0  0  0  0  0  0  0  0  0  0  0
   -4.4530   -0.9892   -0.0008 C   0  0  0  0  0  0  0  0  0  0  0  0
    4.6968   -0.0836   -0.0008 C   0  0  0  0  0  0  0  0  0  0  0  0
    4.2665   -1.4042   -0.0001 C   0  0  0  0  0  0  0  0  0  0  0  0
  1  2  2  0
  1  8  1  0
  2  3  1  0
  2  4  1  0
  3  7  2  0
  3  9  1  0
  4  5  2  0
  4 11  1  0
  5 10  1  0
  5 12  1  0
  6  7  1  0
  6  8  2  0
  6 13  1  0
  8 14  1  0
  9 10  2  0
 11 15  2  0
 12 16  2  0
 13 17  2  0
 14 18  2  0
 15 16  1  0
 17 18  1  0
M  END
>  <PUBCHEM_COMPOUND_CID>  (1) 
9181

>  <PUBCHEM_CONFORMER_RMSD>  (1) 
0.4

>  <PUBCHEM_CONFORMER_DIVERSEORDER>  (1) 
1

>  <PUBCHEM_MMFF94_PARTIAL_CHARGES>  (1) 
25
1 -0.62
10 -0.15
11 -0.15
12 -0.15
13 -0.15
14 -0.15
15 -0.15
16 -0.15
17 -0.15
18 -0.15
19 0.15
2 0.31
20 0.15
21 0.15
22 0.15
23 0.15
24 0.15
25 0.15
26 0.15
27 0.15
28 0.15
29 0.15
7 -0.15
8 0.31
9 -0.15

>  <PUBCHEM_EFFECTIVE_ROTOR_COUNT>  (1) 
0

>  <PUBCHEM_PHARMACOPHORE_FEATURES>  (1) 
5
1 1 acceptor
6 1 2 3 6 7 8 rings
6 2 3 4 5 9 10 rings
6 4 5 11 12 15 16 rings
6 6 8 13 14 17 18 rings

>  <PUBCHEM_HEAVY_ATOM_COUNT>  (1) 
18

>  <PUBCHEM_ATOM_DEF_STEREO_COUNT>  (1) 
0

>  <PUBCHEM_ATOM_UDEF_STEREO_COUNT>  (1) 
0

>  <PUBCHEM_BOND_DEF_STEREO_COUNT>  (1) 
0

>  <PUBCHEM_BOND_UDEF_STEREO_COUNT>  (1) 
0

>  <PUBCHEM_ISOTOPIC_ATOM_COUNT>  (1) 
0

>  <PUBCHEM_COMPONENT_COUNT>  (1) 
1

>  <PUBCHEM_CACTVS_TAUTO_COUNT>  (1) 
1

>  <PUBCHEM_CONFORMER_ID>  (1) 
000023DD00000001

>  <PUBCHEM_MMFF94_ENERGY>  (1) 
61.1812

>  <PUBCHEM_FEATURE_SELFOVERLAP>  (1) 
25.458

>  <PUBCHEM_SHAPE_FINGERPRINT>  (1) 
10319926 262 18124853709207209090
10616163 171 18412265012676685534
10618630 7 18409730676918162445
10967382 1 18338797947705181478
11132069 177 18410851062134489328
11578080 2 17345168169278165881
11806522 49 18408040732115492596
12032990 46 18410576201417937873
12553582 1 18339633546620412743
13140716 1 18412270566464590113
13288520 33 18412547583159758790
138480 1 15095924238606349573
14115302 16 17822019743198755935
14790565 3 17835807391742726033
15196674 1 18410573980856548805
15352361 1 18410574032739307583
15442244 35 18265895761586941946
15536298 74 18341894112688760728
16945 1 18338798896945954753
17492 89 18337671910634653538
17804303 29 18342178868778015769
1813 80 17530685419878117645
18186145 218 17530958111836611467
19141452 34 18343867736387880623
200 152 18131063857769486927
20261772 1 17917426566222294006
20281475 54 18411141337531084696
20510252 161 18272089331839735217
21029758 11 18341888602372619305
21267235 1 18410302414374963595
21501502 16 18410297986421859024
221490 88 18191030203545470083
2297311 6 18270975582595521174
23402539 116 18343013385687808799
23463225 33 18410576205675995037
23557571 272 18201165360370804964
23559900 14 18412257333617889240
2748010 2 18339353175576637885
2871803 45 18334852818486051990
335352 9 18338798914616369821
34934 24 18410567400982423627
4214541 1 18410575041834907136
474 4 17241339104634940100
4921388 177 16081379600043779427
5104073 3 18412262822216569384
67856867 119 18261109733980584820
7364860 26 18268429229508974016
77779 3 18411139130049516494
8809292 202 18334016116007423211
9709674 26 18340211795337097742

>  <PUBCHEM_SHAPE_MULTIPOLES>  (1) 
365.45
8.71
2.29
0.61
2.36
0.32
0
-3.18
0
-0.78
0
0
0
0

>  <PUBCHEM_SHAPE_SELFOVERLAP>  (1) 
844.479

>  <PUBCHEM_SHAPE_VOLUME>  (1) 
186.5

>  <PUBCHEM_COORDINATE_TYPE>  (1) 
2
5
10

$$$$
