9188
     RDKit          3D

 17 20  0  0  0  0  0  0  0  0999 V2000
   -2.6356   -2.1037   -0.0001 S   0  0  0  0  0  0  0  0  0  0  0  0
   -0.5605   -0.1379   -0.0005 C   0  0  0  0  0  0  0  0  0  0  0  0
   -0.2316    1.2367   -0.0003 C   0  0  0  0  0  0  0  0  0  0  0  0
   -1.9447   -0.5115   -0.0002 C   0  0  0  0  0  0  0  0  0  0  0  0
    1.8271   -0.7098   -0.0004 C   0  0  0  0  0  0  0  0  0  0  0  0
    2.1527    0.6641    0.0000 C   0  0  0  0  0  0  0  0  0  0  0  0
    0.4769   -1.0978   -0.0006 C   0  0  0  0  0  0  0  0  0  0  0  0
   -2.9589    0.4559    0.0000 C   0  0  0  0  0  0  0  0  0  0  0  0
    1.1203    1.6174    0.0000 C   0  0  0  0  0  0  0  0  0  0  0  0
   -1.2442    2.1955   -0.0002 C   0  0  0  0  0  0  0  0  0  0  0  0
   -2.5887    1.8198   -0.0001 C   0  0  0  0  0  0  0  0  0  0  0  0
    2.8616   -1.6604   -0.0002 C   0  0  0  0  0  0  0  0  0  0  0  0
   -4.2656   -0.1394    0.0006 C   0  0  0  0  0  0  0  0  0  0  0  0
    3.5036    1.0498    0.0005 C   0  0  0  0  0  0  0  0  0  0  0  0
   -4.2292   -1.5111    0.0007 C   0  0  0  0  0  0  0  0  0  0  0  0
    4.1981   -1.2606    0.0002 C   0  0  0  0  0  0  0  0  0  0  0  0
    4.5187    0.0929    0.0006 C   0  0  0  0  0  0  0  0  0  0  0  0
  1  4  1  0
  1 15  1  0
  2  3  1  0
  2  4  2  0
  2  7  1  0
  3  9  1  0
  3 10  2  0
  4  8  1  0
  5  6  1  0
  5  7  2  0
  5 12  1  0
  6  9  2  0
  6 14  1  0
  8 11  2  0
  8 13  1  0
 10 11  1  0
 12 16  2  0
 13 15  2  0
 14 17  2  0
 16 17  1  0
M  END
>  <PUBCHEM_COMPOUND_CID>  (1) 
9188

>  <PUBCHEM_CONFORMER_RMSD>  (1) 
0.4

>  <PUBCHEM_CONFORMER_DIVERSEORDER>  (1) 
1

>  <PUBCHEM_MMFF94_PARTIAL_CHARGES>  (1) 
22
1 -0.08
10 -0.15
11 -0.15
12 -0.15
13 -0.15
14 -0.15
15 -0.11
16 -0.15
17 -0.15
18 0.15
19 0.15
20 0.15
21 0.15
22 0.15
23 0.15
24 0.15
25 0.15
26 0.15
27 0.15
4 0.04
7 -0.15
9 -0.15

>  <PUBCHEM_EFFECTIVE_ROTOR_COUNT>  (1) 
0

>  <PUBCHEM_PHARMACOPHORE_FEATURES>  (1) 
4
5 1 4 8 13 15 rings
6 2 3 4 8 10 11 rings
6 2 3 5 6 7 9 rings
6 5 6 12 14 16 17 rings

>  <PUBCHEM_HEAVY_ATOM_COUNT>  (1) 
17

>  <PUBCHEM_ATOM_DEF_STEREO_COUNT>  (1) 
0

>  <PUBCHEM_ATOM_UDEF_STEREO_COUNT>  (1) 
0

>  <PUBCHEM_BOND_DEF_STEREO_COUNT>  (1) 
0

>  <PUBCHEM_BOND_UDEF_STEREO_COUNT>  (1) 
0

>  <PUBCHEM_ISOTOPIC_ATOM_COUNT>  (1) 
0

>  <PUBCHEM_COMPONENT_COUNT>  (1) 
1

>  <PUBCHEM_CACTVS_TAUTO_COUNT>  (1) 
1

>  <PUBCHEM_CONFORMER_ID>  (1) 
000023E400000001

>  <PUBCHEM_MMFF94_ENERGY>  (1) 
50.7955

>  <PUBCHEM_FEATURE_SELFOVERLAP>  (1) 
20.405

>  <PUBCHEM_SHAPE_FINGERPRINT>  (1) 
10608611 8 18411696561049421536
10616163 171 18412265021192825566
10618630 7 18409730676955079213
10967382 1 18338516446958673542
11132069 177 18411132541400847080
11806522 49 18408322211255275774
12032990 46 18410858767252986208
12403259 226 18411131416531443696
13140716 1 17906726265337312896
13221675 6 18411417323460287919
13288520 33 18412829058110134662
138480 1 15167981837034170853
13862211 1 18410849988430004175
14115302 16 17822019747541241471
14790565 3 17835808495517653129
15196674 1 18410575076078451556
15352361 1 18338516460302946575
15442244 35 18265614282336421482
15536298 74 18342175579112447024
16945 1 18410856594073647301
17492 89 18337953389795574666
17804303 29 18342178864472479473
17834074 16 18411419501119515734
1813 80 17530685424225793477
18186145 218 17676200281945366214
18522853 276 18412544314294066049
19141452 34 18272091625964155183
200 152 18130781274738641237
20261772 1 17988922318297658127
20281475 54 18411140233724372704
20510252 161 18272089344787869169
21029758 11 18342170077391508505
21267235 1 18410583885098943950
21501502 16 18410297977821342456
221490 88 18191311682806611499
23402539 116 18342731923627778463
23463225 33 18410294722104068532
23557571 272 18201446843889990436
23559900 14 18412257333628380272
2748010 2 18411695465552939508
2871803 45 18334571343456587335
335352 9 18266741268627338717
34934 24 18410566314551012979
4214541 1 18410575046087650432
474 4 17241056534436294220
4921388 177 16009320906531205451
5104073 3 18412262809336942256
69090 78 18342172267439707623
7364860 26 18268429220971793432
77779 3 18411139121433156174
83771 10 18411701010550760929
8809292 202 18333734653994807203
9709674 26 18411987927267405630

>  <PUBCHEM_SHAPE_MULTIPOLES>  (1) 
353.7
8.39
2.25
0.62
1.86
0.18
0
-2.64
0
-0.83
0
-0.01
-0.01
0

>  <PUBCHEM_SHAPE_SELFOVERLAP>  (1) 
800.955

>  <PUBCHEM_SHAPE_VOLUME>  (1) 
185.3

>  <PUBCHEM_COORDINATE_TYPE>  (1) 
2
5
10

$$$$
