9192
     RDKit          3D

 13 15  0  0  0  0  0  0  0  0999 V2000
   -3.0025    0.3034   -0.0003 O   0  0  0  0  0  0  0  0  0  0  0  0
    0.5093   -0.4186    0.0001 C   0  0  0  0  0  0  0  0  0  0  0  0
   -0.9062   -0.5480    0.0001 C   0  0  0  0  0  0  0  0  0  0  0  0
    1.0773    0.8831    0.0002 C   0  0  0  0  0  0  0  0  0  0  0  0
   -1.6753    0.6116   -0.0002 C   0  0  0  0  0  0  0  0  0  0  0  0
    0.2427    2.0133    0.0000 C   0  0  0  0  0  0  0  0  0  0  0  0
   -1.1512    1.9014   -0.0001 C   0  0  0  0  0  0  0  0  0  0  0  0
    1.3443   -1.5536   -0.0002 C   0  0  0  0  0  0  0  0  0  0  0  0
   -1.8429   -1.6211    0.0004 C   0  0  0  0  0  0  0  0  0  0  0  0
    2.4753    1.0064    0.0003 C   0  0  0  0  0  0  0  0  0  0  0  0
    2.7300   -1.4008   -0.0004 C   0  0  0  0  0  0  0  0  0  0  0  0
   -3.0939   -1.0507    0.0001 C   0  0  0  0  0  0  0  0  0  0  0  0
    3.2930   -0.1263    0.0001 C   0  0  0  0  0  0  0  0  0  0  0  0
  1  5  1  0
  1 12  1  0
  2  3  1  0
  2  4  2  0
  2  8  1  0
  3  5  2  0
  3  9  1  0
  4  6  1  0
  4 10  1  0
  5  7  1  0
  6  7  2  0
  8 11  2  0
  9 12  2  0
 10 13  2  0
 11 13  1  0
M  END
>  <PUBCHEM_COMPOUND_CID>  (1) 
9192

>  <PUBCHEM_CONFORMER_RMSD>  (1) 
0.4

>  <PUBCHEM_CONFORMER_DIVERSEORDER>  (1) 
1

>  <PUBCHEM_MMFF94_PARTIAL_CHARGES>  (1) 
18
1 -0.28
10 -0.15
11 -0.15
12 -0.01
13 -0.15
14 0.15
15 0.15
16 0.15
17 0.15
18 0.15
19 0.15
20 0.15
21 0.15
5 0.14
6 -0.15
7 -0.15
8 -0.15
9 -0.15

>  <PUBCHEM_EFFECTIVE_ROTOR_COUNT>  (1) 
0

>  <PUBCHEM_PHARMACOPHORE_FEATURES>  (1) 
4
1 1 acceptor
5 1 3 5 9 12 rings
6 2 3 4 5 6 7 rings
6 2 4 8 10 11 13 rings

>  <PUBCHEM_HEAVY_ATOM_COUNT>  (1) 
13

>  <PUBCHEM_ATOM_DEF_STEREO_COUNT>  (1) 
0

>  <PUBCHEM_ATOM_UDEF_STEREO_COUNT>  (1) 
0

>  <PUBCHEM_BOND_DEF_STEREO_COUNT>  (1) 
0

>  <PUBCHEM_BOND_UDEF_STEREO_COUNT>  (1) 
0

>  <PUBCHEM_ISOTOPIC_ATOM_COUNT>  (1) 
0

>  <PUBCHEM_COMPONENT_COUNT>  (1) 
1

>  <PUBCHEM_CACTVS_TAUTO_COUNT>  (1) 
1

>  <PUBCHEM_CONFORMER_ID>  (1) 
000023E800000001

>  <PUBCHEM_MMFF94_ENERGY>  (1) 
29.8972

>  <PUBCHEM_FEATURE_SELFOVERLAP>  (1) 
20.422

>  <PUBCHEM_SHAPE_FINGERPRINT>  (1) 
10608611 8 18410568483351508236
10967382 1 18194401314728013478
11132069 177 18412257350644446400
11206711 2 18336265647925194204
11471102 20 18410006671927975663
12032990 46 18410300228236583963
12382932 28 18413388730634166170
12524768 44 18341618074871809935
12897270 3 18410575093437707838
14144814 61 18411700980290928083
16945 1 18410856555418824708
17844478 74 17968105217762673281
193761 8 17689997834477179239
20201158 50 18408601478508266827
20645477 70 17903627824749618999
20871998 184 18201999880731838607
21267235 1 18410865372939528943
21501502 16 18338801104770005096
22721475 48 18410578387524584554
2334 1 18410575084710610150
23463225 33 18409167714301326798
23552423 10 18261114084085629596
23559900 14 17550104767691621870
2748010 2 18411134693163631612
3312278 4 18409171021241541426
528886 8 18411695517208565618
63268167 104 18411704326165371321
7364860 26 18126002904056763320
8809292 202 18261117378336550114

>  <PUBCHEM_SHAPE_MULTIPOLES>  (1) 
261.66
4.7
2.06
0.61
0.22
0.41
0
-1.34
0
-0.09
0
0.02
0
0

>  <PUBCHEM_SHAPE_SELFOVERLAP>  (1) 
597.598

>  <PUBCHEM_SHAPE_VOLUME>  (1) 
138.4

>  <PUBCHEM_COORDINATE_TYPE>  (1) 
2
5
10

$$$$
