9194
     RDKit          3D

 13 15  0  0  0  0  0  0  0  0999 V2000
   -0.9048    0.5421    0.0000 N   0  0  0  0  0  0  0  0  0  0  0  0
    0.2047   -2.0371    0.0000 N   0  0  0  0  0  0  0  0  0  0  0  0
   -2.9642   -0.3095    0.0000 N   0  0  0  0  0  0  0  0  0  0  0  0
    0.4948    0.4407    0.0001 C   0  0  0  0  0  0  0  0  0  0  0  0
   -1.6817   -0.5863   -0.0001 C   0  0  0  0  0  0  0  0  0  0  0  0
    1.0222   -0.8723    0.0001 C   0  0  0  0  0  0  0  0  0  0  0  0
   -1.7478    1.6168    0.0000 C   0  0  0  0  0  0  0  0  0  0  0  0
    1.3183    1.5658    0.0000 C   0  0  0  0  0  0  0  0  0  0  0  0
   -1.0864   -1.8864    0.0000 C   0  0  0  0  0  0  0  0  0  0  0  0
    2.4114   -1.0228    0.0001 C   0  0  0  0  0  0  0  0  0  0  0  0
   -3.0123    1.0647    0.0000 C   0  0  0  0  0  0  0  0  0  0  0  0
    2.7007    1.3854   -0.0001 C   0  0  0  0  0  0  0  0  0  0  0  0
    3.2451    0.0991    0.0000 C   0  0  0  0  0  0  0  0  0  0  0  0
  1  4  1  0
  1  5  1  0
  1  7  1  0
  2  6  1  0
  2  9  2  0
  3  5  2  0
  3 11  1  0
  4  6  2  0
  4  8  1  0
  5  9  1  0
  6 10  1  0
  7 11  2  0
  8 12  2  0
 10 13  2  0
 12 13  1  0
M  END
>  <PUBCHEM_COMPOUND_CID>  (1) 
9194

>  <PUBCHEM_CONFORMER_RMSD>  (1) 
0.4

>  <PUBCHEM_CONFORMER_DIVERSEORDER>  (1) 
1

>  <PUBCHEM_MMFF94_PARTIAL_CHARGES>  (1) 
20
1 0.33
10 -0.15
11 0.08
12 -0.15
13 -0.15
14 0.15
15 0.15
16 0.06
17 0.15
18 0.15
19 0.15
2 -0.63
20 0.15
3 -0.57
4 -0.02
5 0.1
6 0.18
7 -0.3
8 -0.15
9 0.47

>  <PUBCHEM_EFFECTIVE_ROTOR_COUNT>  (1) 
0

>  <PUBCHEM_PHARMACOPHORE_FEATURES>  (1) 
5
1 2 acceptor
3 1 3 5 cation
5 1 3 5 7 11 rings
6 1 2 4 5 6 9 rings
6 4 6 8 10 12 13 rings

>  <PUBCHEM_HEAVY_ATOM_COUNT>  (1) 
13

>  <PUBCHEM_ATOM_DEF_STEREO_COUNT>  (1) 
0

>  <PUBCHEM_ATOM_UDEF_STEREO_COUNT>  (1) 
0

>  <PUBCHEM_BOND_DEF_STEREO_COUNT>  (1) 
0

>  <PUBCHEM_BOND_UDEF_STEREO_COUNT>  (1) 
0

>  <PUBCHEM_ISOTOPIC_ATOM_COUNT>  (1) 
0

>  <PUBCHEM_COMPONENT_COUNT>  (1) 
1

>  <PUBCHEM_CACTVS_TAUTO_COUNT>  (1) 
1

>  <PUBCHEM_CONFORMER_ID>  (1) 
000023EA00000001

>  <PUBCHEM_MMFF94_ENERGY>  (1) 
31.904

>  <PUBCHEM_FEATURE_SELFOVERLAP>  (1) 
25.52

>  <PUBCHEM_SHAPE_FINGERPRINT>  (1) 
10608611 8 18411416236965762120
10967382 1 18410575063193530180
11471102 20 18338794499247590429
13380535 21 18338249261570271790
13380535 76 18411416215358868479
13897977 150 18410008806400264053
14144814 61 18410011031045649896
14325111 11 18410856563940284960
15775835 57 18408891732450832564
16945 1 18410575114859842214
17844478 74 18188223094783477187
18186145 218 18271530797007107844
193761 8 17689999359190569317
19973954 147 18337956812941557332
20510252 161 18271530917324084905
20645476 183 17823154443815484534
20871998 184 18128262387688254135
21501502 16 18338795748987933030
2334 1 18338517572229529607
23402539 116 18270950328055971397
23402655 69 18196920103459273613
23463225 33 18263078834292508810
23552423 10 18117276067524147380
23559900 14 18343590638557656500
25 1 18264767653982584669
2748010 2 18410295838779676255
5084963 1 18202281390025998465
528886 8 18411132511357213976
53812653 166 18341609300401213424
63268167 104 18340489958745836504
7364860 26 18126003767339908574

>  <PUBCHEM_SHAPE_MULTIPOLES>  (1) 
252.59
4.68
2.02
0.6
0.19
0.35
0
-1.17
0
-0.1
0
0.02
-0.01
0

>  <PUBCHEM_SHAPE_SELFOVERLAP>  (1) 
571.413

>  <PUBCHEM_SHAPE_VOLUME>  (1) 
131.5

>  <PUBCHEM_COORDINATE_TYPE>  (1) 
2
5
10

$$$$
