9196
     RDKit          3D

 17 20  0  0  0  0  0  0  0  0999 V2000
   -0.7172    1.3825   -0.0002 N   0  0  0  0  0  0  0  0  0  0  0  0
    0.2093    0.3622   -0.0003 C   0  0  0  0  0  0  0  0  0  0  0  0
   -0.5114   -0.8340   -0.0002 C   0  0  0  0  0  0  0  0  0  0  0  0
   -1.9037   -0.5020   -0.0004 C   0  0  0  0  0  0  0  0  0  0  0  0
    1.6275    0.3936   -0.0002 C   0  0  0  0  0  0  0  0  0  0  0  0
   -1.9993    0.8882    0.0000 C   0  0  0  0  0  0  0  0  0  0  0  0
    2.3168   -0.8430    0.0001 C   0  0  0  0  0  0  0  0  0  0  0  0
    0.1970   -2.0527    0.0001 C   0  0  0  0  0  0  0  0  0  0  0  0
    1.5970   -2.0439    0.0004 C   0  0  0  0  0  0  0  0  0  0  0  0
   -3.0937   -1.2600   -0.0005 C   0  0  0  0  0  0  0  0  0  0  0  0
   -3.2250    1.5637    0.0004 C   0  0  0  0  0  0  0  0  0  0  0  0
    2.3419    1.6083   -0.0001 C   0  0  0  0  0  0  0  0  0  0  0  0
    3.7203   -0.8282    0.0003 C   0  0  0  0  0  0  0  0  0  0  0  0
   -4.3276   -0.5995    0.0000 C   0  0  0  0  0  0  0  0  0  0  0  0
   -4.3897    0.7919    0.0006 C   0  0  0  0  0  0  0  0  0  0  0  0
    3.7357    1.5930   -0.0001 C   0  0  0  0  0  0  0  0  0  0  0  0
    4.4221    0.3800    0.0001 C   0  0  0  0  0  0  0  0  0  0  0  0
  1  2  1  0
  1  6  1  0
  2  3  2  0
  2  5  1  0
  3  4  1  0
  3  8  1  0
  4  6  2  0
  4 10  1  0
  5  7  2  0
  5 12  1  0
  6 11  1  0
  7  9  1  0
  7 13  1  0
  8  9  2  0
 10 14  2  0
 11 15  2  0
 12 16  2  0
 13 17  2  0
 14 15  1  0
 16 17  1  0
M  END
>  <PUBCHEM_COMPOUND_CID>  (1) 
9196

>  <PUBCHEM_CONFORMER_RMSD>  (1) 
0.4

>  <PUBCHEM_CONFORMER_DIVERSEORDER>  (1) 
1

>  <PUBCHEM_MMFF94_PARTIAL_CHARGES>  (1) 
24
1 0.03
10 -0.15
11 -0.15
12 -0.15
13 -0.15
14 -0.15
15 -0.15
16 -0.15
17 -0.15
18 0.27
19 0.15
2 -0.15
20 0.15
21 0.15
22 0.15
23 0.15
24 0.15
25 0.15
26 0.15
27 0.15
28 0.15
6 -0.15
8 -0.15
9 -0.15

>  <PUBCHEM_EFFECTIVE_ROTOR_COUNT>  (1) 
0

>  <PUBCHEM_PHARMACOPHORE_FEATURES>  (1) 
6
1 1 cation
1 1 donor
5 1 2 3 4 6 rings
6 2 3 5 7 8 9 rings
6 4 6 10 11 14 15 rings
6 5 7 12 13 16 17 rings

>  <PUBCHEM_HEAVY_ATOM_COUNT>  (1) 
17

>  <PUBCHEM_ATOM_DEF_STEREO_COUNT>  (1) 
0

>  <PUBCHEM_ATOM_UDEF_STEREO_COUNT>  (1) 
0

>  <PUBCHEM_BOND_DEF_STEREO_COUNT>  (1) 
0

>  <PUBCHEM_BOND_UDEF_STEREO_COUNT>  (1) 
0

>  <PUBCHEM_ISOTOPIC_ATOM_COUNT>  (1) 
0

>  <PUBCHEM_COMPONENT_COUNT>  (1) 
1

>  <PUBCHEM_CACTVS_TAUTO_COUNT>  (1) 
1

>  <PUBCHEM_CONFORMER_ID>  (1) 
000023EC00000001

>  <PUBCHEM_MMFF94_ENERGY>  (1) 
44.6422

>  <PUBCHEM_FEATURE_SELFOVERLAP>  (1) 
30.648

>  <PUBCHEM_SHAPE_FINGERPRINT>  (1) 
10062212 137 18411970360682158483
10411042 1 16825589182444234951
10608611 8 18336825295270492493
10616163 171 18412265073054251455
10967382 1 18410573976746171846
11132069 177 18410007745305926201
11471102 20 18411134719091651894
11578080 2 16735505257812675606
11615757 297 17989492926267062121
11806522 49 18338232773465369511
12644460 14 18189057507897059074
13140716 1 18410010992269462776
13221675 6 18412543201887071311
13380535 76 18409450297374682410
13583140 156 16733528533331575681
138480 1 17762336912008711399
14415576 193 18409732854645962164
15196674 1 18410855464465411558
15219456 202 18409168788117049255
15375358 24 18333169466389616435
15442244 35 18051412872693924978
15536298 74 18342459222899988126
16945 1 18194401082778699974
18186145 218 18411420583519813812
200 152 18131346414956584781
20510252 161 18343867718664725353
20645477 70 18343019947865502927
21267235 1 18410865351475118551
21501502 16 18339077082278228243
21524375 3 18410292536250752722
221490 88 18409739430193919642
22854114 111 18408323276428264164
22854114 59 18409730664038574304
23366157 5 17969508113016929530
23402539 116 18271518779957411876
23402655 69 18343018882644775212
23463225 33 18408039598112257628
23559900 14 18269270158478021874
25 1 18409728443888615838
2748010 2 18410015446155875190
2871803 45 18408316692428249703
335352 9 18266458694065043318
34934 24 18410286987458838015
3545911 37 18409731751002949213
4214541 1 18410573963972358049
474 4 17604435231532037148
4990 188 18060429001591752598
5104073 3 18409730646890270043
58051976 378 18341610395427885397
6138700 20 18266745684724689510
6333272 397 18408604794454907114
633830 44 18343022181285036964
69090 78 18342173401210801534
7364860 26 18269557143887158950
77779 3 18411139134228445733
8272917 22 18271249300750707215
9709674 26 18411143532322975335

>  <PUBCHEM_SHAPE_MULTIPOLES>  (1) 
344.87
8.35
2.02
0.61
1.43
0.29
0
-1.86
0
-0.43
0
0
0.01
0

>  <PUBCHEM_SHAPE_SELFOVERLAP>  (1) 
797.245

>  <PUBCHEM_SHAPE_VOLUME>  (1) 
178.3

>  <PUBCHEM_COORDINATE_TYPE>  (1) 
2
5
10

$$$$
