9199
     RDKit          3D

 21 25  0  0  0  0  0  0  0  0999 V2000
    1.0831    0.4463   -0.0003 C   0  0  0  0  0  0  0  0  0  0  0  0
   -0.3720    0.2495    0.0001 C   0  0  0  0  0  0  0  0  0  0  0  0
    0.0156    2.6239    0.0002 C   0  0  0  0  0  0  0  0  0  0  0  0
   -1.0022    1.5133    0.0006 C   0  0  0  0  0  0  0  0  0  0  0  0
    1.3113    1.8490   -0.0004 C   0  0  0  0  0  0  0  0  0  0  0  0
    2.1880   -0.4389   -0.0001 C   0  0  0  0  0  0  0  0  0  0  0  0
   -1.1715   -0.8851   -0.0004 C   0  0  0  0  0  0  0  0  0  0  0  0
   -2.3814    1.6646    0.0008 C   0  0  0  0  0  0  0  0  0  0  0  0
    2.5776    2.4011   -0.0006 C   0  0  0  0  0  0  0  0  0  0  0  0
    3.4928    0.1389   -0.0002 C   0  0  0  0  0  0  0  0  0  0  0  0
   -2.5785   -0.7651    0.0000 C   0  0  0  0  0  0  0  0  0  0  0  0
   -3.1861    0.5193    0.0005 C   0  0  0  0  0  0  0  0  0  0  0  0
    3.6649    1.5371   -0.0005 C   0  0  0  0  0  0  0  0  0  0  0  0
    2.1133   -1.8517    0.0003 C   0  0  0  0  0  0  0  0  0  0  0  0
    4.6304   -0.6845    0.0000 C   0  0  0  0  0  0  0  0  0  0  0  0
   -3.4002   -1.9038   -0.0006 C   0  0  0  0  0  0  0  0  0  0  0  0
   -4.5863    0.6201    0.0004 C   0  0  0  0  0  0  0  0  0  0  0  0
    3.2582   -2.6537    0.0005 C   0  0  0  0  0  0  0  0  0  0  0  0
    4.5158   -2.0710    0.0004 C   0  0  0  0  0  0  0  0  0  0  0  0
   -4.7906   -1.7843   -0.0006 C   0  0  0  0  0  0  0  0  0  0  0  0
   -5.3823   -0.5251   -0.0002 C   0  0  0  0  0  0  0  0  0  0  0  0
  1  2  1  0
  1  5  2  0
  1  6  1  0
  2  4  2  0
  2  7  1  0
  3  4  1  0
  3  5  1  0
  4  8  1  0
  5  9  1  0
  6 10  2  0
  6 14  1  0
  7 11  2  0
  8 12  2  0
  9 13  2  0
 10 13  1  0
 10 15  1  0
 11 12  1  0
 11 16  1  0
 12 17  1  0
 14 18  2  0
 15 19  2  0
 16 20  2  0
 17 21  2  0
 18 19  1  0
 20 21  1  0
M  END
>  <PUBCHEM_COMPOUND_CID>  (1) 
9199

>  <PUBCHEM_CONFORMER_RMSD>  (1) 
0.6

>  <PUBCHEM_CONFORMER_DIVERSEORDER>  (1) 
1

>  <PUBCHEM_MMFF94_PARTIAL_CHARGES>  (1) 
27
13 -0.15
14 -0.15
15 -0.15
16 -0.15
17 -0.15
18 -0.15
19 -0.15
20 -0.15
21 -0.15
24 0.15
25 0.15
26 0.15
27 0.15
28 0.15
29 0.15
3 0.29
30 0.15
31 0.15
32 0.15
33 0.15
34 0.15
35 0.15
4 -0.14
5 -0.14
7 -0.15
8 -0.15
9 -0.15

>  <PUBCHEM_EFFECTIVE_ROTOR_COUNT>  (1) 
0.2

>  <PUBCHEM_PHARMACOPHORE_FEATURES>  (1) 
5
5 1 2 3 4 5 rings
6 1 5 6 9 10 13 rings
6 11 12 16 17 20 21 rings
6 2 4 7 8 11 12 rings
6 6 10 14 15 18 19 rings

>  <PUBCHEM_HEAVY_ATOM_COUNT>  (1) 
21

>  <PUBCHEM_ATOM_DEF_STEREO_COUNT>  (1) 
0

>  <PUBCHEM_ATOM_UDEF_STEREO_COUNT>  (1) 
0

>  <PUBCHEM_BOND_DEF_STEREO_COUNT>  (1) 
0

>  <PUBCHEM_BOND_UDEF_STEREO_COUNT>  (1) 
0

>  <PUBCHEM_ISOTOPIC_ATOM_COUNT>  (1) 
0

>  <PUBCHEM_COMPONENT_COUNT>  (1) 
1

>  <PUBCHEM_CACTVS_TAUTO_COUNT>  (1) 
1

>  <PUBCHEM_CONFORMER_ID>  (1) 
000023EF00000001

>  <PUBCHEM_MMFF94_ENERGY>  (1) 
79.7903

>  <PUBCHEM_FEATURE_SELFOVERLAP>  (1) 
25.582

>  <PUBCHEM_SHAPE_FINGERPRINT>  (1) 
10411042 1 18266741281992697318
10616163 171 18268151044477082271
10622 236 17772446114484074703
10906281 52 18115884047412986688
10967382 1 18338516464507846820
1100329 8 16967165614712615299
11578080 2 17604696777628399468
11806522 49 18408324367661180694
11963148 33 17903070376069646539
12107183 9 18053954944004747969
12403259 226 18336822005283716060
12553582 1 18339067212296072254
12788726 201 17632030679734397201
13140716 1 18270119006923619712
13167823 11 18413388756778788959
13533116 47 18271806865131481545
13544653 18 18335146401086151507
138480 1 18410855503284310112
14341114 176 18413112748936503123
14790565 3 17688877853125844444
14866123 147 17764874589287597081
15042514 8 17834110849705999178
15196674 1 18410856572751668197
15352361 1 18410573959381900707
15442244 35 18339927017387832289
15536298 74 18413107285717081544
15927050 60 17766275758718873908
17349148 13 17775568641506273973
17492 89 18338517555546299187
17857418 61 18411133632407137523
1813 80 17458063772164679821
19141452 34 18413109442465754391
19591789 44 18410291406447617487
200 152 18201718466169486897
20028762 73 18273490182589572390
20261772 1 17989483030705026046
20281475 54 18411141320309069481
20645477 70 18334853952293913274
21033650 10 16298660569403200581
21065198 57 18411136965681580305
21250096 35 18341892982822295987
21267235 1 18411145714134362366
21279426 13 18335977563700820157
21421861 104 18114454553067635706
21478907 32 18338234860513734537
221490 88 18335989756400784274
23559900 14 18410849971249920776
239999 70 18202009858610754324
2871803 45 18333446543034966266
3004659 81 18187364311783066062
314194 84 18269837669908062715
335352 9 18338798910585218077
33824 294 18338515348000959816
3421961 26 18412260649211075656
350125 39 18411139121359686420
3882209 13 17108712416984296035
4073 2 18114748251711356491
4214541 1 18410856521412540197
46194498 28 17459185343087269365
463206 1 18339923843365153287
465052 167 18343871021357562343
5104073 3 18413108363970164521
59755656 215 18410014377505584116
6443956 14 18408605872523626332
7364860 26 18412543236721628328
77779 3 18410293635862392905
7970288 3 18120932807266209866
8863177 126 17969238891851103019
9709674 26 18334860575371205027
9981440 41 17400638715193220721

>  <PUBCHEM_SHAPE_MULTIPOLES>  (1) 
432.17
10.44
2.92
0.62
5.19
0.11
0
-5.17
0
-1.79
0
0
0
0

>  <PUBCHEM_SHAPE_SELFOVERLAP>  (1) 
1003.606

>  <PUBCHEM_SHAPE_VOLUME>  (1) 
201.2

>  <PUBCHEM_COORDINATE_TYPE>  (1) 
2
5
10

$$$$
