920
     RDKit          3D

 16 15  0  0  1  0  0  0  0  0999 V2000
   -2.4369   -3.0417    0.5121 O   0  0  0  0  0  0  0  0  0  0  0  0
   -1.3465   -2.5690   -1.4211 O   0  0  0  0  0  0  0  0  0  0  0  0
    0.9052   -1.0824    1.5036 O   0  0  0  0  0  0  0  0  0  0  0  0
    5.5743    0.5709    0.4669 O   0  0  0  0  0  0  0  0  0  0  0  0
    4.3224    1.3566   -1.2576 O   0  0  0  0  0  0  0  0  0  0  0  0
   -0.4153   -0.2619   -0.2245 N   0  0  0  0  0  0  0  0  0  0  0  0
   -3.9096    3.6655    0.2608 N   0  0  0  0  0  0  0  0  0  0  0  0
   -2.8635    0.0375   -0.2449 C   0  0  0  0  0  0  0  0  0  0  0  0
   -1.6742   -0.8012    0.2232 C   0  0  0  0  0  0  0  0  0  0  0  0
   -2.7970    1.4813    0.2641 C   0  0  0  0  0  0  0  0  0  0  0  0
   -3.9793    2.3017   -0.2503 C   0  0  0  0  0  0  0  0  0  0  0  0
   -1.7702   -2.2094   -0.3302 C   0  0  0  0  0  0  0  0  0  0  0  0
    0.7800   -0.4490    0.4590 C   0  0  0  0  0  0  0  0  0  0  0  0
    1.9405    0.2333   -0.2428 C   0  0  0  0  0  0  0  0  0  0  0  0
    3.2624    0.0391    0.4929 C   0  0  0  0  0  0  0  0  0  0  0  0
    4.4075    0.7287   -0.2113 C   0  0  0  0  0  0  0  0  0  0  0  0
  1 12  1  0
  2 12  2  0
  3 13  2  0
  4 16  1  0
  5 16  2  0
  6  9  1  0
  6 13  1  0
  7 11  1  0
  8  9  1  0
  8 10  1  0
  9 12  1  0
 10 11  1  0
 13 14  1  0
 14 15  1  0
 15 16  1  0
M  END
>  <PUBCHEM_COMPOUND_CID>  (1) 
920

>  <PUBCHEM_CONFORMER_RMSD>  (1) 
0.8

>  <PUBCHEM_CONFORMER_DIVERSEORDER>  (1) 
1
11
169
123
71
207
113
180
37
20
228
5
235
246
6
187
59
159
129
226
186
107
157
8
101
122
144
220
166
250
212
171
142
26
236
124
92
190
175
31
178
237
16
115
69
152
211
100
52
209
255
61
225
153
191
249
203
128
32
80
4
230
204
62
199
82
76
58
213
48
201
50
75
67
196
38
86
55
241
194
34
183
224
93
35
185
111
15
136
102
173
40
29
49
200
21
47
259
12
19
206
112
105
219
97
231
143
141
174
229
27
193
117
240
13
84
216
116
148
22
110
177
248
24
138
18
10
214
108
133
66
119
232
54
210
227
189
43
109
77
233
158
156
41
252
164
146
244
46
130
63
139
131
23
176
197
218
242
95
104
28
221
150
56
179
53
149
238
182
202
17
167
121
42
184
245
72
256
126
57
7
151
247
172
181
132
103
137
234
9
30
94
162
239
39
154
118
165
51
88
198
90
258
145
98
65
83
127
135
89
74
257
33
188
68
120
253
2
106
70
215
223
3
251
25
155
147
79
170
87
14
73
168
45
254
222
64
243
160
44
163
78
134
140
208
195
217
205
36
60
91
85
96
99
81
114
125
161
192

>  <PUBCHEM_MMFF94_PARTIAL_CHARGES>  (1) 
19
1 -0.65
11 0.27
12 0.66
13 0.57
14 0.06
15 0.06
16 0.66
2 -0.57
22 0.37
29 0.36
3 -0.57
30 0.36
31 0.5
32 0.5
4 -0.65
5 -0.57
6 -0.73
7 -0.99
9 0.36

>  <PUBCHEM_EFFECTIVE_ROTOR_COUNT>  (1) 
9

>  <PUBCHEM_PHARMACOPHORE_FEATURES>  (1) 
10
1 1 acceptor
1 2 acceptor
1 3 acceptor
1 4 acceptor
1 5 acceptor
1 6 donor
1 7 cation
1 7 donor
3 1 2 12 anion
3 4 5 16 anion

>  <PUBCHEM_HEAVY_ATOM_COUNT>  (1) 
16

>  <PUBCHEM_ATOM_DEF_STEREO_COUNT>  (1) 
0

>  <PUBCHEM_ATOM_UDEF_STEREO_COUNT>  (1) 
1

>  <PUBCHEM_BOND_DEF_STEREO_COUNT>  (1) 
0

>  <PUBCHEM_BOND_UDEF_STEREO_COUNT>  (1) 
0

>  <PUBCHEM_ISOTOPIC_ATOM_COUNT>  (1) 
0

>  <PUBCHEM_COMPONENT_COUNT>  (1) 
1

>  <PUBCHEM_CACTVS_TAUTO_COUNT>  (1) 
2

>  <PUBCHEM_CONFORMER_ID>  (1) 
0000039800000001

>  <PUBCHEM_MMFF94_ENERGY>  (1) 
13.4223

>  <PUBCHEM_FEATURE_SELFOVERLAP>  (1) 
50.864

>  <PUBCHEM_SHAPE_FINGERPRINT>  (1) 
10680689 15 18270123547183975858
12173636 292 18411973689302866671
12390115 104 18199764565593849329
12500047 106 18272646848859661966
14123255 52 18337673001508237241
15534591 1 18333449845996724931
167882 2 18055636118400264294
1741750 31 18412544275792315273
17539 30 18057591265286752807
17834072 32 18339081475935391561
18785283 64 17904204733056394131
20645476 183 18411694357857519985
20645477 56 18272940439648938489
20645477 70 16415211048668643460
20871999 31 18130779075530938261
21426921 1 18339360884789772015
21524375 3 18267853987780508027
23402539 116 18270673277381034863
23402655 69 18335140904150641356
23557571 272 18272377502907635604
23559900 14 17989209227415105146
23598291 2 18188754085727578082
4175511 318 18131072666230537414
573450 72 18335408102492523594
6049 1 17559389365164666130
633830 44 17821452374446679874
77188 2 17689999355513105311

>  <PUBCHEM_SHAPE_MULTIPOLES>  (1) 
289.96
9.49
3.25
0.97
10.75
0.09
-0.05
8.01
-0.47
-5.81
-0.24
0.37
-0.29
-0.71

>  <PUBCHEM_SHAPE_SELFOVERLAP>  (1) 
556.794

>  <PUBCHEM_SHAPE_VOLUME>  (1) 
175.3

>  <PUBCHEM_COORDINATE_TYPE>  (1) 
2
5
10

$$$$
