9206
     RDKit          3D

 13 15  0  0  0  0  0  0  0  0999 V2000
   -0.6646    0.4184    0.0003 N   0  0  0  0  0  0  0  0  0  0  0  0
   -0.0059   -1.7272    0.0002 N   0  0  0  0  0  0  0  0  0  0  0  0
    1.5164    1.5094   -0.0001 N   0  0  0  0  0  0  0  0  0  0  0  0
    0.7094    0.4321    0.0003 C   0  0  0  0  0  0  0  0  0  0  0  0
   -1.0501   -0.9222    0.0000 C   0  0  0  0  0  0  0  0  0  0  0  0
    1.0920   -0.9031    0.0003 C   0  0  0  0  0  0  0  0  0  0  0  0
   -1.5699    1.4776    0.0004 C   0  0  0  0  0  0  0  0  0  0  0  0
   -2.4502   -1.1934   -0.0003 C   0  0  0  0  0  0  0  0  0  0  0  0
    2.4628   -1.1930    0.0000 C   0  0  0  0  0  0  0  0  0  0  0  0
   -2.8861    1.2119    0.0000 C   0  0  0  0  0  0  0  0  0  0  0  0
   -3.3287   -0.1728   -0.0005 C   0  0  0  0  0  0  0  0  0  0  0  0
    3.3457   -0.1142   -0.0003 C   0  0  0  0  0  0  0  0  0  0  0  0
    2.8293    1.1766   -0.0004 C   0  0  0  0  0  0  0  0  0  0  0  0
  1  4  1  0
  1  5  1  0
  1  7  1  0
  2  5  2  0
  2  6  1  0
  3  4  1  0
  3 13  2  0
  4  6  2  0
  5  8  1  0
  6  9  1  0
  7 10  2  0
  8 11  2  0
  9 12  2  0
 10 11  1  0
 12 13  1  0
M  END
>  <PUBCHEM_COMPOUND_CID>  (1) 
9206

>  <PUBCHEM_CONFORMER_RMSD>  (1) 
0.4

>  <PUBCHEM_CONFORMER_DIVERSEORDER>  (1) 
1

>  <PUBCHEM_MMFF94_PARTIAL_CHARGES>  (1) 
20
1 0.33
10 -0.15
11 -0.15
12 -0.15
13 0.16
14 0.15
15 0.15
16 0.15
17 0.15
18 0.15
19 0.15
2 -0.57
20 0.15
3 -0.57
4 0.11
5 0.14
6 0.23
7 -0.18
8 -0.11
9 -0.15

>  <PUBCHEM_EFFECTIVE_ROTOR_COUNT>  (1) 
0

>  <PUBCHEM_PHARMACOPHORE_FEATURES>  (1) 
5
1 3 acceptor
3 1 2 5 cation
5 1 2 4 5 6 rings
6 1 5 7 8 10 11 rings
6 3 4 6 9 12 13 rings

>  <PUBCHEM_HEAVY_ATOM_COUNT>  (1) 
13

>  <PUBCHEM_ATOM_DEF_STEREO_COUNT>  (1) 
0

>  <PUBCHEM_ATOM_UDEF_STEREO_COUNT>  (1) 
0

>  <PUBCHEM_BOND_DEF_STEREO_COUNT>  (1) 
0

>  <PUBCHEM_BOND_UDEF_STEREO_COUNT>  (1) 
0

>  <PUBCHEM_ISOTOPIC_ATOM_COUNT>  (1) 
0

>  <PUBCHEM_COMPONENT_COUNT>  (1) 
1

>  <PUBCHEM_CACTVS_TAUTO_COUNT>  (1) 
1

>  <PUBCHEM_CONFORMER_ID>  (1) 
000023F600000001

>  <PUBCHEM_MMFF94_ENERGY>  (1) 
29.5961

>  <PUBCHEM_FEATURE_SELFOVERLAP>  (1) 
25.612

>  <PUBCHEM_SHAPE_FINGERPRINT>  (1) 
10608611 8 18410852161604282696
10967382 1 18410575071820465991
11132069 177 18411975858208376096
11471102 20 18410851036654751445
12032990 46 18410863156720385070
12491281 212 18339655450858378289
13380535 76 18410572881361063599
14144814 61 18410011026671398920
14325111 11 18410855460138912672
15442244 35 18194964041606938122
15536298 74 18343301462034534282
15775835 57 18409736148722464629
16945 1 18339079418455659018
17844478 74 18187656820646674929
18186145 218 18271812284926658196
193761 8 17185876640856825127
19973954 147 18410577288013086693
200 152 18131057243556729085
20201158 50 18412544288561263439
20871998 184 18201162177768831967
21267235 1 18410583880756484387
21501502 16 18410573985151464143
2334 1 18410574010931830405
23402539 116 18342726442684993399
23402655 69 18269541768389432413
23463225 33 18335417929029419890
23552423 10 18261393381366254111
23559900 14 18270965631953154126
2748010 2 18410575084668379821
5084963 1 18273214196537815211
5104073 3 18410575084663079921
528886 8 18411131424677669098
53812653 166 18342451547904271656
57096353 35 18338797947731536391
63268167 104 18339646646159506208
6333449 129 18411697690635954191
7364860 26 18269835316060477062
8809292 202 18260555536442447731

>  <PUBCHEM_SHAPE_MULTIPOLES>  (1) 
252.59
5.32
1.73
0.6
0.08
0.05
0
0.54
0
-0.07
0
-0.01
0
0

>  <PUBCHEM_SHAPE_SELFOVERLAP>  (1) 
572.045

>  <PUBCHEM_SHAPE_VOLUME>  (1) 
131.5

>  <PUBCHEM_COORDINATE_TYPE>  (1) 
2
5
10

$$$$
