9239
     RDKit          3D

 10 12  0  0  0  0  0  0  0  0999 V2000
   -0.2725   -1.3476   -0.9723 O   0  0  0  0  0  0  0  0  0  0  0  0
    1.3038    0.4385   -0.9715 O   0  0  0  0  0  0  0  0  0  0  0  0
   -1.0312    0.9105   -0.9714 O   0  0  0  0  0  0  0  0  0  0  0  0
   -0.2849   -1.4094    0.4638 C   0  0  0  0  0  0  0  0  0  0  0  0
    1.3628    0.4576    0.4646 C   0  0  0  0  0  0  0  0  0  0  0  0
   -1.0780    0.9511    0.4648 C   0  0  0  0  0  0  0  0  0  0  0  0
    1.0925   -0.9646    0.9705 C   0  0  0  0  0  0  0  0  0  0  0  0
   -1.3812   -0.4645    0.9707 C   0  0  0  0  0  0  0  0  0  0  0  0
    0.2887    1.4278    0.9715 C   0  0  0  0  0  0  0  0  0  0  0  0
    0.0000    0.0006   -1.3908 C   0  0  0  0  0  0  0  0  0  0  0  0
  1  4  1  0
  1 10  1  0
  2  5  1  0
  2 10  1  0
  3  6  1  0
  3 10  1  0
  4  7  1  0
  4  8  1  0
  5  7  1  0
  5  9  1  0
  6  8  1  0
  6  9  1  0
M  END
>  <PUBCHEM_COMPOUND_CID>  (1) 
9239

>  <PUBCHEM_CONFORMER_RMSD>  (1) 
0.4

>  <PUBCHEM_CONFORMER_DIVERSEORDER>  (1) 
1

>  <PUBCHEM_MMFF94_PARTIAL_CHARGES>  (1) 
7
1 -0.56
10 0.84
2 -0.56
3 -0.56
4 0.28
5 0.28
6 0.28

>  <PUBCHEM_EFFECTIVE_ROTOR_COUNT>  (1) 
1.2

>  <PUBCHEM_PHARMACOPHORE_FEATURES>  (1) 
7
1 1 acceptor
1 2 acceptor
1 3 acceptor
6 1 2 4 5 7 10 rings
6 1 3 4 6 8 10 rings
6 2 3 5 6 9 10 rings
6 4 5 6 7 8 9 rings

>  <PUBCHEM_HEAVY_ATOM_COUNT>  (1) 
10

>  <PUBCHEM_ATOM_DEF_STEREO_COUNT>  (1) 
0

>  <PUBCHEM_ATOM_UDEF_STEREO_COUNT>  (1) 
0

>  <PUBCHEM_BOND_DEF_STEREO_COUNT>  (1) 
0

>  <PUBCHEM_BOND_UDEF_STEREO_COUNT>  (1) 
0

>  <PUBCHEM_ISOTOPIC_ATOM_COUNT>  (1) 
0

>  <PUBCHEM_COMPONENT_COUNT>  (1) 
1

>  <PUBCHEM_CACTVS_TAUTO_COUNT>  (1) 
1

>  <PUBCHEM_CONFORMER_ID>  (1) 
0000241700000001

>  <PUBCHEM_MMFF94_ENERGY>  (1) 
19.4247

>  <PUBCHEM_FEATURE_SELFOVERLAP>  (1) 
49.627

>  <PUBCHEM_SHAPE_FINGERPRINT>  (1) 
12423570 1 17386299674642869145
13024252 1 10284211903963231013
137420 1 15361406075597533001
16945 1 17904803124668082496
369184 2 12047630681187860715
5084963 1 13443426401667024399

>  <PUBCHEM_SHAPE_MULTIPOLES>  (1) 
188.19
1.5
1.5
1.39
0.14
0.02
0.3
-0.02
-0.23
-0.14
-0.23
0
0
0

>  <PUBCHEM_SHAPE_SELFOVERLAP>  (1) 
413.126

>  <PUBCHEM_SHAPE_VOLUME>  (1) 
96.9

>  <PUBCHEM_COORDINATE_TYPE>  (1) 
2
5
10

$$$$
