9240
     RDKit          3D

  9 10  0  0  0  0  0  0  0  0999 V2000
   -1.8456    0.0176   -0.0171 N   0  0  0  0  0  0  0  0  0  0  0  0
    0.3073    1.3701   -0.0175 C   0  0  0  0  0  0  0  0  0  0  0  0
    0.2823   -1.3752   -0.0141 C   0  0  0  0  0  0  0  0  0  0  0  0
    0.5894    0.7616   -1.4004 C   0  0  0  0  0  0  0  0  0  0  0  0
    1.2397    0.7526    1.0291 C   0  0  0  0  0  0  0  0  0  0  0  0
    0.5820   -0.7749   -1.3969 C   0  0  0  0  0  0  0  0  0  0  0  0
    1.2178   -0.7713    1.0382 C   0  0  0  0  0  0  0  0  0  0  0  0
   -1.1738    1.2428    0.3924 C   0  0  0  0  0  0  0  0  0  0  0  0
   -1.1991   -1.2233    0.3862 C   0  0  0  0  0  0  0  0  0  0  0  0
  1  8  1  0
  1  9  1  0
  2  4  1  0
  2  5  1  0
  2  8  1  0
  3  6  1  0
  3  7  1  0
  3  9  1  0
  4  6  1  0
  5  7  1  0
M  END
>  <PUBCHEM_COMPOUND_CID>  (1) 
9240

>  <PUBCHEM_CONFORMER_RMSD>  (1) 
0.4

>  <PUBCHEM_CONFORMER_DIVERSEORDER>  (1) 
1

>  <PUBCHEM_MMFF94_PARTIAL_CHARGES>  (1) 
4
1 -0.9
24 0.36
8 0.27
9 0.27

>  <PUBCHEM_EFFECTIVE_ROTOR_COUNT>  (1) 
1.4

>  <PUBCHEM_PHARMACOPHORE_FEATURES>  (1) 
3
1 1 cation
1 1 donor
9 1 2 3 4 5 6 7 8 9 rings

>  <PUBCHEM_HEAVY_ATOM_COUNT>  (1) 
9

>  <PUBCHEM_ATOM_DEF_STEREO_COUNT>  (1) 
0

>  <PUBCHEM_ATOM_UDEF_STEREO_COUNT>  (1) 
0

>  <PUBCHEM_BOND_DEF_STEREO_COUNT>  (1) 
0

>  <PUBCHEM_BOND_UDEF_STEREO_COUNT>  (1) 
0

>  <PUBCHEM_ISOTOPIC_ATOM_COUNT>  (1) 
0

>  <PUBCHEM_COMPONENT_COUNT>  (1) 
1

>  <PUBCHEM_CACTVS_TAUTO_COUNT>  (1) 
1

>  <PUBCHEM_CONFORMER_ID>  (1) 
0000241800000001

>  <PUBCHEM_MMFF94_ENERGY>  (1) 
19.318

>  <PUBCHEM_FEATURE_SELFOVERLAP>  (1) 
15.223

>  <PUBCHEM_SHAPE_FINGERPRINT>  (1) 
12423570 1 10221438929527908508
13024252 1 13265458646736912928
137420 1 15249292976707150294
16945 1 18338499902797371168
18185500 45 17469350048670369383
21040471 1 18338525264806100665
29004967 10 15477027248046345270
5084963 1 17413035639891541394

>  <PUBCHEM_SHAPE_MULTIPOLES>  (1) 
180.23
1.66
1.65
1.33
0.56
0.02
0.36
0.04
-0.36
0.08
-0.08
-0.5
-0.04
-0.02

>  <PUBCHEM_SHAPE_SELFOVERLAP>  (1) 
365.558

>  <PUBCHEM_SHAPE_VOLUME>  (1) 
99.4

>  <PUBCHEM_COORDINATE_TYPE>  (1) 
2
5
10

$$$$
