9246
     RDKit          3D

  7  8  0  0  1  0  0  0  0  0999 V2000
    1.4841    0.0260   -0.7201 O   0  0  0  0  0  0  0  0  0  0  0  0
    0.9331    0.8319    0.3404 C   0  0  0  0  0  0  0  0  0  0  0  0
    1.0242   -0.6681    0.4410 C   0  0  0  0  0  0  0  0  0  0  0  0
   -0.3502    1.5063   -0.0295 C   0  0  0  0  0  0  0  0  0  0  0  0
   -0.1920   -1.5148    0.2490 C   0  0  0  0  0  0  0  0  0  0  0  0
   -1.5634    0.5983    0.1690 C   0  0  0  0  0  0  0  0  0  0  0  0
   -1.3359   -0.7796   -0.4499 C   0  0  0  0  0  0  0  0  0  0  0  0
  1  2  1  0
  1  3  1  0
  2  3  1  0
  2  4  1  0
  3  5  1  0
  4  6  1  0
  5  7  1  0
  6  7  1  0
M  END
>  <PUBCHEM_COMPOUND_CID>  (1) 
9246

>  <PUBCHEM_CONFORMER_RMSD>  (1) 
0.4

>  <PUBCHEM_CONFORMER_DIVERSEORDER>  (1) 
1
2
3

>  <PUBCHEM_MMFF94_PARTIAL_CHARGES>  (1) 
7
1 -0.3
2 -0.05
3 -0.05
4 0.09
5 0.09
8 0.1
9 0.1

>  <PUBCHEM_EFFECTIVE_ROTOR_COUNT>  (1) 
1

>  <PUBCHEM_PHARMACOPHORE_FEATURES>  (1) 
2
1 1 acceptor
7 1 2 3 4 5 6 7 rings

>  <PUBCHEM_HEAVY_ATOM_COUNT>  (1) 
7

>  <PUBCHEM_ATOM_DEF_STEREO_COUNT>  (1) 
0

>  <PUBCHEM_ATOM_UDEF_STEREO_COUNT>  (1) 
2

>  <PUBCHEM_BOND_DEF_STEREO_COUNT>  (1) 
0

>  <PUBCHEM_BOND_UDEF_STEREO_COUNT>  (1) 
0

>  <PUBCHEM_ISOTOPIC_ATOM_COUNT>  (1) 
0

>  <PUBCHEM_COMPONENT_COUNT>  (1) 
1

>  <PUBCHEM_CACTVS_TAUTO_COUNT>  (1) 
1

>  <PUBCHEM_CONFORMER_ID>  (1) 
0000241E00000001

>  <PUBCHEM_MMFF94_ENERGY>  (1) 
7.0015

>  <PUBCHEM_FEATURE_SELFOVERLAP>  (1) 
10.148

>  <PUBCHEM_SHAPE_FINGERPRINT>  (1) 
16714656 1 18339657645644539196
18185500 45 18338223861070451171
20096714 4 18410856534007161883
21040471 1 18267582395006736737
29004967 10 17839469130086053443

>  <PUBCHEM_SHAPE_MULTIPOLES>  (1) 
138.19
1.78
1.6
0.75
0.16
0.01
-0.02
-0.03
-0.12
0.18
0.09
-0.08
0.03
-0.09

>  <PUBCHEM_SHAPE_SELFOVERLAP>  (1) 
276.705

>  <PUBCHEM_SHAPE_VOLUME>  (1) 
81.7

>  <PUBCHEM_COORDINATE_TYPE>  (1) 
2
5
10

$$$$
