9247
     RDKit          3D

  7  8  0  0  1  0  0  0  0  0999 V2000
   -1.8424   -0.0089    0.7521 S   0  0  0  0  0  0  0  0  0  0  0  0
   -0.9364    0.6739   -0.5390 C   0  0  0  0  0  0  0  0  0  0  0  0
   -0.8681   -0.8247   -0.4345 C   0  0  0  0  0  0  0  0  0  0  0  0
    0.2713    1.5089   -0.2429 C   0  0  0  0  0  0  0  0  0  0  0  0
    0.3816   -1.5022    0.0469 C   0  0  0  0  0  0  0  0  0  0  0  0
    1.3763    0.7670    0.5103 C   0  0  0  0  0  0  0  0  0  0  0  0
    1.6176   -0.6140   -0.0931 C   0  0  0  0  0  0  0  0  0  0  0  0
  1  2  1  0
  1  3  1  0
  2  3  1  0
  2  4  1  0
  3  5  1  0
  4  6  1  0
  5  7  1  0
  6  7  1  0
M  END
>  <PUBCHEM_COMPOUND_CID>  (1) 
9247

>  <PUBCHEM_CONFORMER_RMSD>  (1) 
0.4

>  <PUBCHEM_CONFORMER_DIVERSEORDER>  (1) 
1
3
2

>  <PUBCHEM_MMFF94_PARTIAL_CHARGES>  (1) 
7
1 -0.28
2 -0.05
3 -0.05
4 0.09
5 0.09
8 0.1
9 0.1

>  <PUBCHEM_EFFECTIVE_ROTOR_COUNT>  (1) 
1

>  <PUBCHEM_PHARMACOPHORE_FEATURES>  (1) 
1
7 1 2 3 4 5 6 7 rings

>  <PUBCHEM_HEAVY_ATOM_COUNT>  (1) 
7

>  <PUBCHEM_ATOM_DEF_STEREO_COUNT>  (1) 
0

>  <PUBCHEM_ATOM_UDEF_STEREO_COUNT>  (1) 
2

>  <PUBCHEM_BOND_DEF_STEREO_COUNT>  (1) 
0

>  <PUBCHEM_BOND_UDEF_STEREO_COUNT>  (1) 
0

>  <PUBCHEM_ISOTOPIC_ATOM_COUNT>  (1) 
0

>  <PUBCHEM_COMPONENT_COUNT>  (1) 
1

>  <PUBCHEM_CACTVS_TAUTO_COUNT>  (1) 
1

>  <PUBCHEM_CONFORMER_ID>  (1) 
0000241F00000001

>  <PUBCHEM_MMFF94_ENERGY>  (1) 
10.4823

>  <PUBCHEM_FEATURE_SELFOVERLAP>  (1) 
5.074

>  <PUBCHEM_SHAPE_FINGERPRINT>  (1) 
137420 1 12423120039834181947
16714656 1 18409739447584220350
18185500 45 16175656429629073982
20096714 4 18343866644764424546
21040471 1 18195811988135913573
24536 1 18126840727579521512
29004967 10 18260276230355233929
5084963 1 18271804678491948307
5943 1 14005941464064253637

>  <PUBCHEM_SHAPE_MULTIPOLES>  (1) 
147.91
2.07
1.55
0.83
0.17
0
-0.05
-0.05
-0.39
-0.29
0.1
0.17
0.05
0.07

>  <PUBCHEM_SHAPE_SELFOVERLAP>  (1) 
287.187

>  <PUBCHEM_SHAPE_VOLUME>  (1) 
89.8

>  <PUBCHEM_COORDINATE_TYPE>  (1) 
2
5
10

$$$$
