9269
     RDKit          3D

 12 12  0  0  0  0  0  0  0  0999 V2000
    0.7755    1.8273   -0.5010 O   0  0  0  0  0  0  0  0  0  0  0  0
    1.8285   -0.7752   -0.5006 O   0  0  0  0  0  0  0  0  0  0  0  0
   -1.8288    0.7754   -0.5006 O   0  0  0  0  0  0  0  0  0  0  0  0
   -0.7756   -1.8273   -0.5009 O   0  0  0  0  0  0  0  0  0  0  0  0
    1.6748    1.4244    0.5316 C   0  0  0  0  0  0  0  0  0  0  0  0
   -0.3394    2.5874   -0.0316 C   0  0  0  0  0  0  0  0  0  0  0  0
    2.5881    0.3393   -0.0298 C   0  0  0  0  0  0  0  0  0  0  0  0
   -1.4241    1.6746    0.5314 C   0  0  0  0  0  0  0  0  0  0  0  0
    1.4242   -1.6748    0.5312 C   0  0  0  0  0  0  0  0  0  0  0  0
   -2.5881   -0.3394   -0.0300 C   0  0  0  0  0  0  0  0  0  0  0  0
    0.3393   -2.5874   -0.0316 C   0  0  0  0  0  0  0  0  0  0  0  0
   -1.6747   -1.4242    0.5318 C   0  0  0  0  0  0  0  0  0  0  0  0
  1  5  1  0
  1  6  1  0
  2  7  1  0
  2  9  1  0
  3  8  1  0
  3 10  1  0
  4 11  1  0
  4 12  1  0
  5  7  1  0
  6  8  1  0
  9 11  1  0
 10 12  1  0
M  END
>  <PUBCHEM_COMPOUND_CID>  (1) 
9269

>  <PUBCHEM_CONFORMER_RMSD>  (1) 
0.6

>  <PUBCHEM_CONFORMER_DIVERSEORDER>  (1) 
1
4
5
8
3
6
7
2

>  <PUBCHEM_MMFF94_PARTIAL_CHARGES>  (1) 
12
1 -0.56
10 0.28
11 0.28
12 0.28
2 -0.56
3 -0.56
4 -0.56
5 0.28
6 0.28
7 0.28
8 0.28
9 0.28

>  <PUBCHEM_EFFECTIVE_ROTOR_COUNT>  (1) 
2.4

>  <PUBCHEM_PHARMACOPHORE_FEATURES>  (1) 
4
1 1 acceptor
1 2 acceptor
1 3 acceptor
1 4 acceptor

>  <PUBCHEM_HEAVY_ATOM_COUNT>  (1) 
12

>  <PUBCHEM_ATOM_DEF_STEREO_COUNT>  (1) 
0

>  <PUBCHEM_ATOM_UDEF_STEREO_COUNT>  (1) 
0

>  <PUBCHEM_BOND_DEF_STEREO_COUNT>  (1) 
0

>  <PUBCHEM_BOND_UDEF_STEREO_COUNT>  (1) 
0

>  <PUBCHEM_ISOTOPIC_ATOM_COUNT>  (1) 
0

>  <PUBCHEM_COMPONENT_COUNT>  (1) 
1

>  <PUBCHEM_CACTVS_TAUTO_COUNT>  (1) 
1

>  <PUBCHEM_CONFORMER_ID>  (1) 
0000243500000001

>  <PUBCHEM_MMFF94_ENERGY>  (1) 
33.0997

>  <PUBCHEM_FEATURE_SELFOVERLAP>  (1) 
20.313

>  <PUBCHEM_SHAPE_FINGERPRINT>  (1) 
14251711 518 18339071700399694466
14251717 144 18195523933971308783
15775835 57 18123198895981414224
19930374 2 17974250409630672112
19973954 147 17978511932000416323
20201158 50 18336540616184615561
22802520 49 17984725340944325382
2748010 2 18410856589704560711
2897 32 18409449197657053428
66348 1 18338516343868882995

>  <PUBCHEM_SHAPE_MULTIPOLES>  (1) 
223.48
3.25
3.25
0.75
0
0
-0.05
0
-0.05
0
-0.05
0
0
0

>  <PUBCHEM_SHAPE_SELFOVERLAP>  (1) 
420.353

>  <PUBCHEM_SHAPE_VOLUME>  (1) 
137.9

>  <PUBCHEM_COORDINATE_TYPE>  (1) 
2
5
10

$$$$
