9278
     RDKit          3D

 22 24  0  0  1  0  0  0  0  0999 V2000
   -2.1360   -1.0077    1.6868 S   0  0  0  0  0  0  0  0  0  0  0  0
    1.1244    1.8984   -1.2844 O   0  0  0  0  0  0  0  0  0  0  0  0
    2.8684    1.0532    0.8357 N   0  0  0  0  0  0  0  0  0  0  0  0
   -0.1581    0.1044   -0.4468 N   0  0  0  0  0  0  0  0  0  0  0  0
    2.3332    0.1828   -0.2330 C   0  0  0  0  0  0  0  0  0  0  0  0
    4.1833    0.4900    1.3979 C   0  0  0  0  0  0  0  0  0  0  0  0
    3.1490    2.4679    0.3046 C   0  0  0  0  0  0  0  0  0  0  0  0
    1.8710    1.1744    1.9987 C   0  0  0  0  0  0  0  0  0  0  0  0
    1.0404    0.7918   -0.7434 C   0  0  0  0  0  0  0  0  0  0  0  0
    3.3406    0.0724   -1.3513 C   0  0  0  0  0  0  0  0  0  0  0  0
   -1.4053    0.8225   -0.2869 C   0  0  0  0  0  0  0  0  0  0  0  0
   -0.2359   -1.3304   -0.3134 C   0  0  0  0  0  0  0  0  0  0  0  0
   -2.3846    0.4030    0.6338 C   0  0  0  0  0  0  0  0  0  0  0  0
   -1.0991   -1.9533    0.6022 C   0  0  0  0  0  0  0  0  0  0  0  0
   -1.6859    1.9696   -1.0529 C   0  0  0  0  0  0  0  0  0  0  0  0
    0.5197   -2.1565   -1.1669 C   0  0  0  0  0  0  0  0  0  0  0  0
   -3.5790    1.1253    0.7915 C   0  0  0  0  0  0  0  0  0  0  0  0
   -1.1452   -3.3531    0.7008 C   0  0  0  0  0  0  0  0  0  0  0  0
   -2.8796    2.6805   -0.8976 C   0  0  0  0  0  0  0  0  0  0  0  0
    0.4646   -3.5488   -1.0724 C   0  0  0  0  0  0  0  0  0  0  0  0
   -3.8245    2.2613    0.0280 C   0  0  0  0  0  0  0  0  0  0  0  0
   -0.3612   -4.1475   -0.1309 C   0  0  0  0  0  0  0  0  0  0  0  0
  1 13  1  0
  1 14  1  0
  2  9  2  0
  3  5  1  0
  3  6  1  0
  3  7  1  0
  3  8  1  0
  4  9  1  0
  4 11  1  0
  4 12  1  0
  5  9  1  0
  5 10  1  0
 11 13  2  0
 11 15  1  0
 12 14  2  0
 12 16  1  0
 13 17  1  0
 14 18  1  0
 15 19  2  0
 16 20  2  0
 17 21  2  0
 18 22  2  0
 19 21  1  0
 20 22  1  0
M  CHG  1   3   1
M  END
>  <PUBCHEM_COMPOUND_CID>  (1) 
9278

>  <PUBCHEM_CONFORMER_RMSD>  (1) 
0.6

>  <PUBCHEM_CONFORMER_DIVERSEORDER>  (1) 
1
4
2
7
3
5
6

>  <PUBCHEM_MMFF94_PARTIAL_CHARGES>  (1) 
29
1 -0.2
11 0.12
12 0.12
13 0.1
14 0.1
15 -0.15
16 -0.15
17 -0.15
18 -0.15
19 -0.15
2 -0.57
20 -0.15
21 -0.15
22 -0.15
3 -1.01
36 0.15
37 0.15
38 0.15
39 0.15
4 -0.29
40 0.15
41 0.15
42 0.15
43 0.15
5 0.56
6 0.5
7 0.5
8 0.5
9 0.57

>  <PUBCHEM_EFFECTIVE_ROTOR_COUNT>  (1) 
3.4

>  <PUBCHEM_PHARMACOPHORE_FEATURES>  (1) 
5
1 2 acceptor
1 3 cation
6 1 4 11 12 13 14 rings
6 11 13 15 17 19 21 rings
6 12 14 16 18 20 22 rings

>  <PUBCHEM_HEAVY_ATOM_COUNT>  (1) 
22

>  <PUBCHEM_ATOM_DEF_STEREO_COUNT>  (1) 
0

>  <PUBCHEM_ATOM_UDEF_STEREO_COUNT>  (1) 
1

>  <PUBCHEM_BOND_DEF_STEREO_COUNT>  (1) 
0

>  <PUBCHEM_BOND_UDEF_STEREO_COUNT>  (1) 
0

>  <PUBCHEM_ISOTOPIC_ATOM_COUNT>  (1) 
0

>  <PUBCHEM_COMPONENT_COUNT>  (1) 
1

>  <PUBCHEM_CACTVS_TAUTO_COUNT>  (1) 
1

>  <PUBCHEM_CONFORMER_ID>  (1) 
0000243E00000001

>  <PUBCHEM_MMFF94_ENERGY>  (1) 
114.9076

>  <PUBCHEM_FEATURE_SELFOVERLAP>  (1) 
25.41

>  <PUBCHEM_SHAPE_FINGERPRINT>  (1) 
10165383 225 17981084952212207369
10764073 3 15944536293752372624
10871710 139 17326349108092214692
11370993 70 18413105043765330249
12035758 1 18193279598515372362
12553582 1 17257105181552769166
12633257 1 17342674575506066402
12716301 132 18189074073638757662
12788726 201 17974567206154427706
12839892 36 18408879638371618547
13004483 165 17763445610565830306
13134695 92 17476349505438619911
13140716 1 18265048033537107891
13681431 1 17478607915033036471
14022347 108 17471321889589374566
14790565 3 15093677941041234588
15230672 131 18408891708010663006
16110190 28 18117817960123881618
16945 1 18186805828257886087
20600515 1 17335620194453544971
20642791 239 16458856986855424494
20905425 154 17547572574340447268
21033648 29 18343012294497980520
21421861 104 16391564216788531107
21524375 3 18343291557439114087
21731228 192 18410847746393376073
22112679 90 17472995367639567750
22182313 1 17751936718369983277
22956985 138 17680985198090014491
23388829 49 16827847097488775439
23419403 2 17035908314326118963
23526113 38 17914925078795780566
23559900 14 17827652352674257557
23728640 28 18265034976984143482
238 59 18270392768407754431
2748010 2 18118152236948304979
34934 24 17469616564429033789
35225 105 18197478817730636707
352729 6 18261970634172824349
495365 180 17976532815729312461
5265222 85 18264790856245387238
5845 1 13551751940966626215
633830 44 17846221003422736817
7097593 13 18115572860036995984
7364860 26 17907576930886509255
81228 2 18052816145973654135
84936 182 17983859982295996505
84936 31 17554302758076305295
90316 7 17905896129547441075
9862522 239 18335132085754451579

>  <PUBCHEM_SHAPE_MULTIPOLES>  (1) 
440.77
5.77
4.46
1.55
1.22
4.86
-0.39
-5.64
-1.38
-1.15
0.8
0.57
-0.15
1.37

>  <PUBCHEM_SHAPE_SELFOVERLAP>  (1) 
933.824

>  <PUBCHEM_SHAPE_VOLUME>  (1) 
249.3

>  <PUBCHEM_COORDINATE_TYPE>  (1) 
2
5
10

$$$$
