9297
     RDKit          3D

 10  9  0  0  1  0  0  0  0  0999 V2000
    0.4851    1.2122   -1.2612 O   0  0  0  0  0  0  0  0  0  0  0  0
   -0.6202    2.1723    0.5049 N   0  0  0  0  0  0  0  0  0  0  0  0
   -0.2295   -0.2307    0.5640 C   0  0  0  0  0  0  0  0  0  0  0  0
   -1.5775   -0.9243    0.2188 C   0  0  0  0  0  0  0  0  0  0  0  0
    0.9735   -1.1536    0.2692 C   0  0  0  0  0  0  0  0  0  0  0  0
   -2.7871   -0.1054    0.6809 C   0  0  0  0  0  0  0  0  0  0  0  0
   -1.7338   -1.2845   -1.2618 C   0  0  0  0  0  0  0  0  0  0  0  0
   -0.0690    1.1049   -0.1693 C   0  0  0  0  0  0  0  0  0  0  0  0
    2.2818   -0.5204    0.6565 C   0  0  0  0  0  0  0  0  0  0  0  0
    3.2767   -0.2705   -0.2021 C   0  0  0  0  0  0  0  0  0  0  0  0
  1  8  2  0
  2  8  1  0
  3  4  1  0
  3  5  1  0
  3  8  1  0
  4  6  1  0
  4  7  1  0
  5  9  1  0
  9 10  2  0
M  END
>  <PUBCHEM_COMPOUND_CID>  (1) 
9297

>  <PUBCHEM_CONFORMER_RMSD>  (1) 
0.6

>  <PUBCHEM_CONFORMER_DIVERSEORDER>  (1) 
1
28
49
43
21
16
34
32
50
38
39
56
47
25
36
30
57
58
11
41
44
48
31
54
18
19
52
22
46
53
14
26
15
33
45
55
29
13
37
5
7
35
59
2
4
40
51
6
27
3
23
24
20
42
10
12
8
17
9

>  <PUBCHEM_MMFF94_PARTIAL_CHARGES>  (1) 
12
1 -0.57
10 -0.3
2 -0.8
21 0.15
22 0.37
23 0.37
24 0.15
25 0.15
3 0.06
5 0.14
8 0.57
9 -0.29

>  <PUBCHEM_EFFECTIVE_ROTOR_COUNT>  (1) 
4

>  <PUBCHEM_PHARMACOPHORE_FEATURES>  (1) 
5
1 1 acceptor
1 10 hydrophobe
1 2 donor
3 4 6 7 hydrophobe
4 3 4 5 9 hydrophobe

>  <PUBCHEM_HEAVY_ATOM_COUNT>  (1) 
10

>  <PUBCHEM_ATOM_DEF_STEREO_COUNT>  (1) 
0

>  <PUBCHEM_ATOM_UDEF_STEREO_COUNT>  (1) 
1

>  <PUBCHEM_BOND_DEF_STEREO_COUNT>  (1) 
0

>  <PUBCHEM_BOND_UDEF_STEREO_COUNT>  (1) 
0

>  <PUBCHEM_ISOTOPIC_ATOM_COUNT>  (1) 
0

>  <PUBCHEM_COMPONENT_COUNT>  (1) 
1

>  <PUBCHEM_CACTVS_TAUTO_COUNT>  (1) 
2

>  <PUBCHEM_CONFORMER_ID>  (1) 
0000245100000001

>  <PUBCHEM_MMFF94_ENERGY>  (1) 
17.0446

>  <PUBCHEM_FEATURE_SELFOVERLAP>  (1) 
25.397

>  <PUBCHEM_SHAPE_FINGERPRINT>  (1) 
12423570 1 15868303201276235949
13839132 238 15840169705351484579
14128692 85 18198337566371529263
14993402 34 18272364274519166191
15310529 11 15285349630842097122
16945 1 18343011160319905250
18185500 45 18340486771943601075
20653085 51 14057555683793777750
21040471 1 17762611794462973048
29004967 10 17967252000654840923
369184 2 16225765177543096314
5084963 1 17317313253100088795

>  <PUBCHEM_SHAPE_MULTIPOLES>  (1) 
194.94
3.84
1.66
1.05
1.78
0.8
-0.27
-1.11
0.31
-0.41
-0.15
-0.25
-0.05
-0.43

>  <PUBCHEM_SHAPE_SELFOVERLAP>  (1) 
363.727

>  <PUBCHEM_SHAPE_VOLUME>  (1) 
121.8

>  <PUBCHEM_COORDINATE_TYPE>  (1) 
2
5
10

$$$$
