9311
     RDKit          3D

 15 14  0  0  0  0  0  0  0  0999 V2000
   -4.9865   -0.1011    0.0060 N   0  0  0  0  0  0  0  0  0  0  0  0
    4.9924   -0.1024    0.0017 N   0  0  0  0  0  0  0  0  0  0  0  0
   -3.7865    0.7697    0.0005 C   0  0  0  0  0  0  0  0  0  0  0  0
    3.8004    0.7803    0.0451 C   0  0  0  0  0  0  0  0  0  0  0  0
   -2.5393   -0.1008   -0.0404 C   0  0  0  0  0  0  0  0  0  0  0  0
    2.5451   -0.0800    0.0101 C   0  0  0  0  0  0  0  0  0  0  0  0
   -1.2716    0.7539   -0.0004 C   0  0  0  0  0  0  0  0  0  0  0  0
    1.2540    0.7429    0.0008 C   0  0  0  0  0  0  0  0  0  0  0  0
   -0.0126   -0.1162   -0.0050 C   0  0  0  0  0  0  0  0  0  0  0  0
   -6.2715    0.7393    0.0145 C   0  0  0  0  0  0  0  0  0  0  0  0
   -5.0143   -1.0008   -1.2379 C   0  0  0  0  0  0  0  0  0  0  0  0
   -5.0006   -1.0046    1.2473 C   0  0  0  0  0  0  0  0  0  0  0  0
    6.2848    0.7232    0.0649 C   0  0  0  0  0  0  0  0  0  0  0  0
    4.9913   -1.0782    1.1867 C   0  0  0  0  0  0  0  0  0  0  0  0
    5.0149   -0.9252   -1.2938 C   0  0  0  0  0  0  0  0  0  0  0  0
  1  3  1  0
  1 10  1  0
  1 11  1  0
  1 12  1  0
  2  4  1  0
  2 13  1  0
  2 14  1  0
  2 15  1  0
  3  5  1  0
  4  6  1  0
  5  7  1  0
  6  8  1  0
  7  9  1  0
  8  9  1  0
M  CHG  2   1   1   2   1
M  END
>  <PUBCHEM_COMPOUND_CID>  (1) 
9311

>  <PUBCHEM_CONFORMER_RMSD>  (1) 
0.8

>  <PUBCHEM_CONFORMER_DIVERSEORDER>  (1) 
1
35
37
33
18
16
34
3
39
17
2
38
32
11
36
19
15
21
7
10
27
12
14
9
4
23
29
28
26
25
5
22
13
20
24
31
6
30
8

>  <PUBCHEM_MMFF94_PARTIAL_CHARGES>  (1) 
10
1 -1.01
10 0.5
11 0.5
12 0.5
13 0.5
14 0.5
15 0.5
2 -1.01
3 0.5
4 0.5

>  <PUBCHEM_EFFECTIVE_ROTOR_COUNT>  (1) 
8

>  <PUBCHEM_PHARMACOPHORE_FEATURES>  (1) 
3
1 1 cation
1 2 cation
5 5 6 7 8 9 hydrophobe

>  <PUBCHEM_HEAVY_ATOM_COUNT>  (1) 
15

>  <PUBCHEM_ATOM_DEF_STEREO_COUNT>  (1) 
0

>  <PUBCHEM_ATOM_UDEF_STEREO_COUNT>  (1) 
0

>  <PUBCHEM_BOND_DEF_STEREO_COUNT>  (1) 
0

>  <PUBCHEM_BOND_UDEF_STEREO_COUNT>  (1) 
0

>  <PUBCHEM_ISOTOPIC_ATOM_COUNT>  (1) 
0

>  <PUBCHEM_COMPONENT_COUNT>  (1) 
1

>  <PUBCHEM_CACTVS_TAUTO_COUNT>  (1) 
1

>  <PUBCHEM_CONFORMER_ID>  (1) 
0000245F00000001

>  <PUBCHEM_MMFF94_ENERGY>  (1) 
45.1886

>  <PUBCHEM_FEATURE_SELFOVERLAP>  (1) 
15.223

>  <PUBCHEM_SHAPE_FINGERPRINT>  (1) 
11089746 13 12829488173229901636
11287383 113 18113339738650809360
11315181 36 16415478281739482723
12091667 2 18413670218991722053
12596602 18 15698280022967815462
13533116 47 18187639164400384746
13862211 1 18411131437552294167
14123238 8 18412544310231142284
1420 363 18334299772843058539
14251718 22 16660364800499640040
14528608 73 13623533467470744646
15716309 27 18343864420124320015
17834072 33 18409445890706269848
17834076 25 7853856087425074817
17844677 252 18187369834768637229
19489759 90 14056997222334057101
20645477 70 18337108961318989910
220451 1 16877946031481427059
23035841 295 17312822676140425793
23402539 116 18272083907770592501
23559900 14 17967531328380304377
42788 4 18411136939400060609
4463277 17 18411136935105366160
49783359 22 17489867154951856519
542803 24 12540693721352758941
57483677 66 18131068225239725542
8209 1 18411136939410623173

>  <PUBCHEM_SHAPE_MULTIPOLES>  (1) 
298.73
18.63
1.12
1.03
0.13
0.11
0.03
1.65
-0.06
-0.01
-0.02
0
0.42
0

>  <PUBCHEM_SHAPE_SELFOVERLAP>  (1) 
537.794

>  <PUBCHEM_SHAPE_VOLUME>  (1) 
196.9

>  <PUBCHEM_COORDINATE_TYPE>  (1) 
2
5
10

$$$$
