9319
     RDKit          3D

 19 18  0  0  0  0  0  0  0  0999 V2000
   -2.8561   -2.3326   -1.0409 S   0  0  0  0  0  0  0  0  0  0  0  0
   -4.4768    0.2171   -0.3736 O   0  0  0  0  0  0  0  0  0  0  0  0
   -4.3519    1.0667    1.7673 O   0  0  0  0  0  0  0  0  0  0  0  0
   -0.8862   -4.0156    0.1453 N   0  0  0  0  0  0  0  0  0  0  0  0
    2.5175    1.1034   -0.5704 C   0  0  0  0  0  0  0  0  0  0  0  0
    1.2024    1.2430    0.1986 C   0  0  0  0  0  0  0  0  0  0  0  0
    3.6868    0.6309    0.2990 C   0  0  0  0  0  0  0  0  0  0  0  0
    0.0525    1.6265   -0.7356 C   0  0  0  0  0  0  0  0  0  0  0  0
    5.0125    0.3875   -0.4310 C   0  0  0  0  0  0  0  0  0  0  0  0
   -1.2575    1.7989    0.0360 C   0  0  0  0  0  0  0  0  0  0  0  0
    6.1218   -0.1406    0.4821 C   0  0  0  0  0  0  0  0  0  0  0  0
   -2.3992    2.2160   -0.8963 C   0  0  0  0  0  0  0  0  0  0  0  0
    7.4682   -0.2975   -0.2299 C   0  0  0  0  0  0  0  0  0  0  0  0
   -3.7169    2.4235   -0.1497 C   0  0  0  0  0  0  0  0  0  0  0  0
    8.5834   -0.7947    0.6767 C   0  0  0  0  0  0  0  0  0  0  0  0
   -4.2038    1.1783    0.5580 C   0  0  0  0  0  0  0  0  0  0  0  0
   -4.9792   -1.0186    0.1450 C   0  0  0  0  0  0  0  0  0  0  0  0
   -3.8272   -1.9624    0.4520 C   0  0  0  0  0  0  0  0  0  0  0  0
   -1.6905   -3.3297   -0.3325 C   0  0  0  0  0  0  0  0  0  0  0  0
  1 18  1  0
  1 19  1  0
  2 16  1  0
  2 17  1  0
  3 16  2  0
  4 19  3  0
  5  6  1  0
  5  7  1  0
  6  8  1  0
  7  9  1  0
  8 10  1  0
  9 11  1  0
 10 12  1  0
 11 13  1  0
 12 14  1  0
 13 15  1  0
 14 16  1  0
 17 18  1  0
M  END
>  <PUBCHEM_COMPOUND_CID>  (1) 
9319

>  <PUBCHEM_CONFORMER_RMSD>  (1) 
1.4

>  <PUBCHEM_CONFORMER_DIVERSEORDER>  (1) 
2
55
65
48
41
50
31
26
46
44
16
9
30
1
37
19
34
59
14
33
40
52
11
67
38
17
23
24
62
43
18
28
53
21
45
6
47
8
49
36
27
39
7
15
3
61
25
20
32
5
58
51
66
12
4
54
57
29
64
35
10
22
60
13
63
56
42

>  <PUBCHEM_MMFF94_PARTIAL_CHARGES>  (1) 
9
1 -0.27
14 0.06
16 0.66
17 0.28
18 0.23
19 0.59
2 -0.43
3 -0.57
4 -0.56

>  <PUBCHEM_EFFECTIVE_ROTOR_COUNT>  (1) 
14

>  <PUBCHEM_PHARMACOPHORE_FEATURES>  (1) 
3
1 15 hydrophobe
1 3 acceptor
1 4 acceptor

>  <PUBCHEM_HEAVY_ATOM_COUNT>  (1) 
19

>  <PUBCHEM_ATOM_DEF_STEREO_COUNT>  (1) 
0

>  <PUBCHEM_ATOM_UDEF_STEREO_COUNT>  (1) 
0

>  <PUBCHEM_BOND_DEF_STEREO_COUNT>  (1) 
0

>  <PUBCHEM_BOND_UDEF_STEREO_COUNT>  (1) 
0

>  <PUBCHEM_ISOTOPIC_ATOM_COUNT>  (1) 
0

>  <PUBCHEM_COMPONENT_COUNT>  (1) 
1

>  <PUBCHEM_CACTVS_TAUTO_COUNT>  (1) 
1

>  <PUBCHEM_CONFORMER_ID>  (1) 
0000246700000002

>  <PUBCHEM_MMFF94_ENERGY>  (1) 
3.8218

>  <PUBCHEM_FEATURE_SELFOVERLAP>  (1) 
15.223

>  <PUBCHEM_SHAPE_FINGERPRINT>  (1) 
11524674 6 17846776299759754974
12091667 2 16733271144938428932
12838863 1 18270673303267520063
14251740 79 18341611555333007267
14251751 18 18411701019541933912
14647877 51 18126574418465526486
14866123 147 18410854399293066287
15021287 119 17531250569456330708
15348495 7 18131062775707215296
16719943 64 18409730677177372286
17780758 139 18131635569166620129
20771845 165 17536867781126585837
23402539 116 16805325461678861988
338550 245 18333737901327680262
397830 11 18130211771071795800
484985 159 18334846260577751047
559249 180 18334574637796717181
57307002 103 18059293279797038432
602551 16 18412826919031993164
6138700 20 18337951299037486511
6437827 68 18411138022285967086

>  <PUBCHEM_SHAPE_MULTIPOLES>  (1) 
378.14
18.7
3.74
0.99
47.78
3.71
-0.12
3.58
-3.78
-5.86
0.48
-0.62
-0.11
-0.76

>  <PUBCHEM_SHAPE_SELFOVERLAP>  (1) 
686.031

>  <PUBCHEM_SHAPE_VOLUME>  (1) 
239.5

>  <PUBCHEM_COORDINATE_TYPE>  (1) 
2
5
10

$$$$
