9322
     RDKit          3D

  3  2  0  0  0  0  0  0  0  0999 V2000
    1.5802    0.0000    0.0000 S   0  0  0  0  0  0  0  0  0  0  0  0
   -1.3701    0.0000    0.0000 N   0  0  0  0  0  0  0  0  0  0  0  0
   -0.2101    0.0000    0.0000 C   0  0  0  0  0  0  0  0  0  0  0  0
  1  3  1  0
  2  3  3  0
M  CHG  1   1  -1
M  END
>  <PUBCHEM_COMPOUND_CID>  (1) 
9322

>  <PUBCHEM_CONFORMER_RMSD>  (1) 
0.4

>  <PUBCHEM_CONFORMER_DIVERSEORDER>  (1) 
1

>  <PUBCHEM_MMFF94_PARTIAL_CHARGES>  (1) 
3
1 -0.88
2 -0.56
3 0.44

>  <PUBCHEM_EFFECTIVE_ROTOR_COUNT>  (1) 
0

>  <PUBCHEM_PHARMACOPHORE_FEATURES>  (1) 
1
1 2 acceptor

>  <PUBCHEM_HEAVY_ATOM_COUNT>  (1) 
3

>  <PUBCHEM_ATOM_DEF_STEREO_COUNT>  (1) 
0

>  <PUBCHEM_ATOM_UDEF_STEREO_COUNT>  (1) 
0

>  <PUBCHEM_BOND_DEF_STEREO_COUNT>  (1) 
0

>  <PUBCHEM_BOND_UDEF_STEREO_COUNT>  (1) 
0

>  <PUBCHEM_ISOTOPIC_ATOM_COUNT>  (1) 
0

>  <PUBCHEM_COMPONENT_COUNT>  (1) 
1

>  <PUBCHEM_CACTVS_TAUTO_COUNT>  (1) 
1

>  <PUBCHEM_CONFORMER_ID>  (1) 
0000246A00000001

>  <PUBCHEM_MMFF94_ENERGY>  (1) 
0

>  <PUBCHEM_FEATURE_SELFOVERLAP>  (1) 
5.074

>  <PUBCHEM_SHAPE_FINGERPRINT>  (1) 
139733 1 8574711299668381920
20096714 4 18342177812369009312
21015797 1 8645326329949985163
5460574 1 8574716801537305856

>  <PUBCHEM_SHAPE_MULTIPOLES>  (1) 
60.61
2.08
0.62
0.62
0.23
0
0
0
0
0.08
0
0.08
0
0

>  <PUBCHEM_SHAPE_SELFOVERLAP>  (1) 
90.101

>  <PUBCHEM_SHAPE_VOLUME>  (1) 
44.4

>  <PUBCHEM_COORDINATE_TYPE>  (1) 
2
5
10

$$$$
