9332
     RDKit          3D

 14 15  0  0  0  0  0  0  0  0999 V2000
   -1.1110    0.0748   -0.1306 P   0  0  0  0  0  0  0  0  0  0  0  0
   -1.3079   -0.0502   -1.6225 O   0  0  0  0  0  0  0  0  0  0  0  0
    2.7444    0.4719    0.2818 O   0  0  0  0  0  0  0  0  0  0  0  0
    1.5903   -1.1617   -0.8514 O   0  0  0  0  0  0  0  0  0  0  0  0
   -2.0761    1.2162    0.5926 N   0  0  0  0  0  0  0  0  0  0  0  0
   -1.3727   -1.3254    0.7228 N   0  0  0  0  0  0  0  0  0  0  0  0
    0.4993    0.5554    0.2505 N   0  0  0  0  0  0  0  0  0  0  0  0
   -2.0317    2.5569    0.0238 C   0  0  0  0  0  0  0  0  0  0  0  0
   -3.2291    1.6736   -0.1719 C   0  0  0  0  0  0  0  0  0  0  0  0
   -2.7406   -1.8269    0.7409 C   0  0  0  0  0  0  0  0  0  0  0  0
   -1.6747   -2.5177   -0.0586 C   0  0  0  0  0  0  0  0  0  0  0  0
    1.6120   -0.1413   -0.1712 C   0  0  0  0  0  0  0  0  0  0  0  0
    3.9798   -0.1524   -0.0850 C   0  0  0  0  0  0  0  0  0  0  0  0
    5.1179    0.6268    0.4788 C   0  0  0  0  0  0  0  0  0  0  0  0
  1  2  2  0
  1  5  1  0
  1  6  1  0
  1  7  1  0
  3 12  1  0
  3 13  1  0
  4 12  2  0
  5  8  1  0
  5  9  1  0
  6 10  1  0
  6 11  1  0
  7 12  1  0
  8  9  1  0
 10 11  1  0
 13 14  1  0
M  END
>  <PUBCHEM_COMPOUND_CID>  (1) 
9332

>  <PUBCHEM_CONFORMER_RMSD>  (1) 
0.8

>  <PUBCHEM_CONFORMER_DIVERSEORDER>  (1) 
1
15
16
33
20
13
4
22
8
36
12
3
11
10
29
5
21
28
19
32
39
30
26
7
9
35
38
34
37
17
6
25
27
2
24
18
31
23
14

>  <PUBCHEM_MMFF94_PARTIAL_CHARGES>  (1) 
22
1 1.49
10 -0.04
11 -0.04
12 0.78
13 0.28
15 0.1
16 0.1
17 0.1
18 0.1
19 0.1
2 -0.7
20 0.1
21 0.1
22 0.1
23 0.37
3 -0.43
4 -0.57
5 -0.58
6 -0.58
7 -0.69
8 -0.04
9 -0.04

>  <PUBCHEM_EFFECTIVE_ROTOR_COUNT>  (1) 
7.2

>  <PUBCHEM_PHARMACOPHORE_FEATURES>  (1) 
3
1 2 acceptor
1 4 acceptor
1 7 donor

>  <PUBCHEM_HEAVY_ATOM_COUNT>  (1) 
14

>  <PUBCHEM_ATOM_DEF_STEREO_COUNT>  (1) 
0

>  <PUBCHEM_ATOM_UDEF_STEREO_COUNT>  (1) 
0

>  <PUBCHEM_BOND_DEF_STEREO_COUNT>  (1) 
0

>  <PUBCHEM_BOND_UDEF_STEREO_COUNT>  (1) 
0

>  <PUBCHEM_ISOTOPIC_ATOM_COUNT>  (1) 
0

>  <PUBCHEM_COMPONENT_COUNT>  (1) 
1

>  <PUBCHEM_CACTVS_TAUTO_COUNT>  (1) 
3

>  <PUBCHEM_CONFORMER_ID>  (1) 
0000247400000001

>  <PUBCHEM_MMFF94_ENERGY>  (1) 
18.1446

>  <PUBCHEM_FEATURE_SELFOVERLAP>  (1) 
15.223

>  <PUBCHEM_SHAPE_FINGERPRINT>  (1) 
10680689 15 17917992819611856772
11357001 24 18334581269373772627
12138202 97 18411134701922371199
122479 349 18271526386191856260
12500047 106 18410288073869279696
12532896 13 18265054635323542527
13024252 1 13262393358790124087
13214271 11 18342455954593510204
13296909 8 18408044039039908964
13380535 76 18270115708457035230
15219456 202 18272660013082422734
15279308 16 18272373048978940430
1741750 31 18340208470916041432
187816 3 18337938065894614015
20524608 308 18411140220865903115
20645477 56 18409735032247388488
20645477 70 16988285258040451174
20711985 365 18335988682985877791
20871998 184 18342184388027262607
21339142 126 18341895259276671903
21524375 3 18125714596018939933
22959321 60 18200586004048650888
2306618 200 17749376087930176445
23380061 127 18336262431353339842
23402539 116 18340477946202377127
23500284 214 18271813362900295713
23526113 38 17774157886124924946
23557571 272 18340503239312210612
23559900 14 18270400482823366242
23598291 2 17604162483939096918
23598294 1 18334004008410070770
2748010 2 18197799733439719591
305870 269 17974285413529387553
3086196 2 18263082265655029682
573450 72 18187633713981137714
6333449 129 18411139130086387897
633830 44 17840024040325271309
81228 2 18336280023650245171

>  <PUBCHEM_SHAPE_MULTIPOLES>  (1) 
259.41
7.27
2.43
0.9
11.64
0.15
0.21
-1.72
-1.12
-3.33
-0.2
-0.22
0.12
0.51

>  <PUBCHEM_SHAPE_SELFOVERLAP>  (1) 
492.864

>  <PUBCHEM_SHAPE_VOLUME>  (1) 
162

>  <PUBCHEM_COORDINATE_TYPE>  (1) 
2
5
10

$$$$
