9340
     RDKit          3D

 20 22  0  0  1  0  0  0  0  0999 V2000
    5.5351   -0.0995    0.5336 Cl  0  0  0  0  0  0  0  0  0  0  0  0
   -1.0191    1.1964    0.0667 N   0  0  0  0  0  0  0  0  0  0  0  0
   -2.3941    3.7479    0.0637 N   0  0  0  0  0  0  0  0  0  0  0  0
   -0.3584    0.0708   -0.5909 C   0  0  0  0  0  0  0  0  0  0  0  0
   -2.4179    1.3063   -0.3664 C   0  0  0  0  0  0  0  0  0  0  0  0
   -0.2980    2.4492   -0.1929 C   0  0  0  0  0  0  0  0  0  0  0  0
   -3.1049    2.4922    0.3153 C   0  0  0  0  0  0  0  0  0  0  0  0
   -0.9975    3.6282    0.4881 C   0  0  0  0  0  0  0  0  0  0  0  0
    1.1355    0.0285   -0.3054 C   0  0  0  0  0  0  0  0  0  0  0  0
   -1.0320   -1.2581   -0.2821 C   0  0  0  0  0  0  0  0  0  0  0  0
    1.9961    0.6970   -1.1520 C   0  0  0  0  0  0  0  0  0  0  0  0
    1.5855   -0.6781    0.7915 C   0  0  0  0  0  0  0  0  0  0  0  0
   -0.9834   -2.2656   -1.2240 C   0  0  0  0  0  0  0  0  0  0  0  0
   -1.6712   -1.4166    0.9308 C   0  0  0  0  0  0  0  0  0  0  0  0
    3.3657    0.6573   -0.8909 C   0  0  0  0  0  0  0  0  0  0  0  0
    2.9553   -0.7179    1.0528 C   0  0  0  0  0  0  0  0  0  0  0  0
   -1.6006   -3.4841   -0.9410 C   0  0  0  0  0  0  0  0  0  0  0  0
   -2.2884   -2.6351    1.2137 C   0  0  0  0  0  0  0  0  0  0  0  0
    3.8453   -0.0501    0.2116 C   0  0  0  0  0  0  0  0  0  0  0  0
   -2.2530   -3.6688    0.2778 C   0  0  0  0  0  0  0  0  0  0  0  0
  1 19  1  0
  2  4  1  0
  2  5  1  0
  2  6  1  0
  3  7  1  0
  3  8  1  0
  4  9  1  0
  4 10  1  0
  5  7  1  0
  6  8  1  0
  9 11  2  0
  9 12  1  0
 10 13  2  0
 10 14  1  0
 11 15  1  0
 12 16  2  0
 13 17  1  0
 14 18  2  0
 15 19  2  0
 16 19  1  0
 17 20  2  0
 18 20  1  0
M  END
>  <PUBCHEM_COMPOUND_CID>  (1) 
9340

>  <PUBCHEM_CONFORMER_RMSD>  (1) 
0.6

>  <PUBCHEM_CONFORMER_DIVERSEORDER>  (1) 
1
5
8
2
7
6
3
4

>  <PUBCHEM_MMFF94_PARTIAL_CHARGES>  (1) 
30
1 -0.18
10 -0.14
11 -0.15
12 -0.15
13 -0.15
14 -0.15
15 -0.15
16 -0.15
17 -0.15
18 -0.15
19 0.18
2 -0.81
20 -0.15
3 -0.9
30 0.36
31 0.15
32 0.15
33 0.15
34 0.15
35 0.15
36 0.15
37 0.15
38 0.15
39 0.15
4 0.56
5 0.27
6 0.27
7 0.27
8 0.27
9 -0.14

>  <PUBCHEM_EFFECTIVE_ROTOR_COUNT>  (1) 
4.2

>  <PUBCHEM_PHARMACOPHORE_FEATURES>  (1) 
6
1 2 cation
1 3 cation
1 3 donor
6 10 13 14 17 18 20 rings
6 2 3 5 6 7 8 rings
6 9 11 12 15 16 19 rings

>  <PUBCHEM_HEAVY_ATOM_COUNT>  (1) 
20

>  <PUBCHEM_ATOM_DEF_STEREO_COUNT>  (1) 
0

>  <PUBCHEM_ATOM_UDEF_STEREO_COUNT>  (1) 
1

>  <PUBCHEM_BOND_DEF_STEREO_COUNT>  (1) 
0

>  <PUBCHEM_BOND_UDEF_STEREO_COUNT>  (1) 
0

>  <PUBCHEM_ISOTOPIC_ATOM_COUNT>  (1) 
0

>  <PUBCHEM_COMPONENT_COUNT>  (1) 
1

>  <PUBCHEM_CACTVS_TAUTO_COUNT>  (1) 
1

>  <PUBCHEM_CONFORMER_ID>  (1) 
0000247C00000001

>  <PUBCHEM_MMFF94_ENERGY>  (1) 
60.8225

>  <PUBCHEM_FEATURE_SELFOVERLAP>  (1) 
30.448

>  <PUBCHEM_SHAPE_FINGERPRINT>  (1) 
10090160 65 18120648029617475501
10319926 262 18270097078007075490
10411042 1 18122904506196897678
1100329 8 18337672018177173129
11357001 24 18409169938878348722
11578080 2 17629475569424837393
12553582 1 18051139386599588742
12643181 29 18123477073642762190
12788726 201 18190196735245734554
13004483 165 18267860777575638163
13134695 92 17833548277213841119
13140716 1 18339081617558289368
13149001 5 17977349997592079269
13538477 17 18333170561690685948
13583140 156 17703211998018528594
136203 1 18411136948074203041
13955234 65 17331409666626210337
14178342 30 18335408059659044506
14844126 61 18338223955892431386
15042514 8 18409736174634706203
15490181 8 18049166570691475751
15906896 17 18410289186118311175
16945 1 18337119998461384877
1813 80 17911254019787292798
200 152 17824534395422815658
20361792 2 17981041134929934678
20510252 161 18271246002168546073
20600515 1 17914920822398728731
20832881 197 17899976324974614819
21041028 32 18119535580914648867
21524375 3 18053373301995003093
21731228 192 18122347878218714128
22112679 90 18051995880107825135
22224240 67 18270967822086119889
23366157 5 17182790865905849013
23402539 116 18272076206730518885
23419403 2 17486756748252284883
23557571 272 18272933847507278076
23558518 356 18265893558084512231
23559900 14 18272647897680975714
23598288 3 18337116760330584438
23728640 28 18337947905100595778
25147074 1 17894919551192270228
266924 1 17969802954137347556
3091708 16 9129629316306395697
352729 6 18410866429675330053
43471831 8 17978228253789761933
474229 33 18337955580734693609
497634 4 15182148357184443548
5104073 3 18335405878226868560
58260988 114 16950576466840780762
6138700 20 17116074686635045678
7364860 26 17188136133015154815
7471813 234 18051121798586854734
81228 2 18339344353602840657
90316 7 18268721678005475339
9981440 41 18049722919238634777

>  <PUBCHEM_SHAPE_MULTIPOLES>  (1) 
403.5
6.51
4.78
1.12
10.44
2.02
-0.03
-1.4
1.19
-7.01
0.24
0.08
-0.52
-0.44

>  <PUBCHEM_SHAPE_SELFOVERLAP>  (1) 
857.921

>  <PUBCHEM_SHAPE_VOLUME>  (1) 
224.8

>  <PUBCHEM_COORDINATE_TYPE>  (1) 
2
5
10

$$$$
