9344
     RDKit          3D

 28 30  0  0  1  0  0  0  0  0999 V2000
    1.9574    1.9390   -2.7994 Cl  0  0  0  0  0  0  0  0  0  0  0  0
    5.3102   -0.2017    0.7753 O   0  0  0  0  0  0  0  0  0  0  0  0
    1.4955   -1.3990    2.0264 O   0  0  0  0  0  0  0  0  0  0  0  0
    3.9938   -0.9133    2.4746 O   0  0  0  0  0  0  0  0  0  0  0  0
   -1.0651   -0.9847    1.7470 O   0  0  0  0  0  0  0  0  0  0  0  0
   -2.2685   -3.3022   -1.6077 O   0  0  0  0  0  0  0  0  0  0  0  0
   -4.3431   -3.4978   -0.7314 O   0  0  0  0  0  0  0  0  0  0  0  0
   -1.7277   -0.9932   -0.4725 N   0  0  0  0  0  0  0  0  0  0  0  0
    4.3936    1.1166   -1.0473 C   0  0  0  0  0  0  0  0  0  0  0  0
    5.4170    0.0660   -0.6414 C   0  0  0  0  0  0  0  0  0  0  0  0
    3.0399    0.6129   -0.6476 C   0  0  0  0  0  0  0  0  0  0  0  0
    2.9116   -0.1655    0.5093 C   0  0  0  0  0  0  0  0  0  0  0  0
    1.6541   -0.6259    0.9129 C   0  0  0  0  0  0  0  0  0  0  0  0
    0.5242   -0.3066    0.1594 C   0  0  0  0  0  0  0  0  0  0  0  0
    1.8987    0.9411   -1.3876 C   0  0  0  0  0  0  0  0  0  0  0  0
    4.1017   -0.4703    1.3387 C   0  0  0  0  0  0  0  0  0  0  0  0
   -3.0969   -1.4861   -0.2302 C   0  0  0  0  0  0  0  0  0  0  0  0
    6.8372    0.5402   -0.9145 C   0  0  0  0  0  0  0  0  0  0  0  0
    0.6456    0.4775   -0.9871 C   0  0  0  0  0  0  0  0  0  0  0  0
   -4.1429   -0.4942   -0.7556 C   0  0  0  0  0  0  0  0  0  0  0  0
   -0.7984   -0.7757    0.5520 C   0  0  0  0  0  0  0  0  0  0  0  0
   -4.0185    0.8766   -0.1351 C   0  0  0  0  0  0  0  0  0  0  0  0
   -3.3096   -2.8515   -0.8674 C   0  0  0  0  0  0  0  0  0  0  0  0
   -4.7187    1.1623    1.0262 C   0  0  0  0  0  0  0  0  0  0  0  0
   -3.2060    1.8240   -0.7377 C   0  0  0  0  0  0  0  0  0  0  0  0
   -4.6039    2.4286    1.5999 C   0  0  0  0  0  0  0  0  0  0  0  0
   -3.0911    3.0902   -0.1640 C   0  0  0  0  0  0  0  0  0  0  0  0
   -3.7901    3.3925    1.0048 C   0  0  0  0  0  0  0  0  0  0  0  0
  1 15  1  0
  2 10  1  0
  2 16  1  0
  3 13  1  0
  4 16  2  0
  5 21  2  0
  6 23  1  0
  7 23  2  0
  8 17  1  0
  8 21  1  0
  9 10  1  0
  9 11  1  0
 10 18  1  0
 11 12  2  0
 11 15  1  0
 12 13  1  0
 12 16  1  0
 13 14  2  0
 14 19  1  0
 14 21  1  0
 15 19  2  0
 17 20  1  0
 17 23  1  0
 20 22  1  0
 22 24  2  0
 22 25  1  0
 24 26  1  0
 25 27  2  0
 26 28  2  0
 27 28  1  0
M  END
>  <PUBCHEM_COMPOUND_CID>  (1) 
9344

>  <PUBCHEM_CONFORMER_RMSD>  (1) 
0.8

>  <PUBCHEM_CONFORMER_DIVERSEORDER>  (1) 
3
125
92
44
18
29
126
47
121
22
97
101
26
98
23
87
56
30
111
38
117
7
76
110
113
71
118
54
33
40
53
74
129
48
45
114
108
77
79
58
25
46
27
131
120
6
31
68
70
123
5
36
67
128
57
94
52
15
64
19
109
42
82
116
130
90
105
75
112
32
107
65
83
49
122
60
119
20
35
106
16
85
14
72
41
37
13
88
78
12
124
99
11
55
28
9
95
86
63
34
103
89
39
24
43
17
21
84
81
115
61
51
2
127
1
96
50
73
80
91
100
104
10
69
62
93
4
102
66
8
59

>  <PUBCHEM_MMFF94_PARTIAL_CHARGES>  (1) 
36
1 -0.18
10 0.28
11 -0.14
12 0.09
13 0.08
14 0.09
15 0.18
16 0.63
17 0.36
19 -0.15
2 -0.43
20 0.14
21 0.54
22 -0.14
23 0.66
24 -0.15
25 -0.15
26 -0.15
27 -0.15
28 -0.15
3 -0.53
36 0.15
39 0.37
4 -0.57
40 0.45
41 0.15
42 0.15
43 0.15
44 0.15
45 0.15
46 0.5
5 -0.57
6 -0.65
7 -0.57
8 -0.73
9 0.14

>  <PUBCHEM_EFFECTIVE_ROTOR_COUNT>  (1) 
6.6

>  <PUBCHEM_PHARMACOPHORE_FEATURES>  (1) 
10
1 3 donor
1 4 acceptor
1 5 acceptor
1 6 acceptor
1 7 acceptor
1 8 donor
3 6 7 23 anion
6 11 12 13 14 15 19 rings
6 2 9 10 11 12 16 rings
6 22 24 25 26 27 28 rings

>  <PUBCHEM_HEAVY_ATOM_COUNT>  (1) 
28

>  <PUBCHEM_ATOM_DEF_STEREO_COUNT>  (1) 
1

>  <PUBCHEM_ATOM_UDEF_STEREO_COUNT>  (1) 
1

>  <PUBCHEM_BOND_DEF_STEREO_COUNT>  (1) 
0

>  <PUBCHEM_BOND_UDEF_STEREO_COUNT>  (1) 
0

>  <PUBCHEM_ISOTOPIC_ATOM_COUNT>  (1) 
0

>  <PUBCHEM_COMPONENT_COUNT>  (1) 
1

>  <PUBCHEM_CACTVS_TAUTO_COUNT>  (1) 
22

>  <PUBCHEM_CONFORMER_ID>  (1) 
0000248000000003

>  <PUBCHEM_MMFF94_ENERGY>  (1) 
80.9872

>  <PUBCHEM_FEATURE_SELFOVERLAP>  (1) 
50.835

>  <PUBCHEM_SHAPE_FINGERPRINT>  (1) 
10165383 225 17845667958649701249
105312 117 18131354059914060157
10906281 52 17749691653127821948
11049842 53 18196959727967665006
11135926 11 16732984233234092122
11545043 162 17775567572001719570
11796584 16 17917437493352584486
12107183 9 18049434842907518610
12236239 1 18187081749847151216
12422481 6 17973710386323193394
12788726 201 18337670944688771235
13009979 54 18262236741577117535
13583140 156 17346308319743980254
14294032 229 18271529707156325905
14713325 29 18342463664308116079
14790565 3 17168725123459237924
15021287 119 17750223708854183522
15064981 113 18127677254033135646
15081414 286 17385729071885914700
15183329 4 18334013865998389702
15475509 8 18043834012981145788
15484559 13 15226195604946819822
1601671 61 18334013857360884668
16988056 13 16105290267223445989
17349148 13 17894905269529134018
17818456 19 18339079293959623244
17844677 252 18201156667319996704
20511986 3 18114449102780899848
20739085 24 17241333452215053700
20775438 99 16322567650517686615
21033648 144 17096084843586423366
21033648 29 16988550308513627776
21033650 10 18267889262077871862
21623969 137 15719399417187606344
21756936 100 18186812369614501553
23522609 53 18114764663414780708
23557571 272 17846504733441517509
23559900 14 17917715652455857966
23569943 247 17459731658986372586
24771293 8 18042125518263119820
3610482 184 18116176482992957876
38570 142 17462324388618429372
392239 28 17387725810798686305
4169191 19 17460041901917827740
46194498 28 16055726868502586625
469060 322 18272104807534902243
5104073 3 17168428281189710416
550186 7 18060420175149545053
57527295 17 16127809639849195893
5895379 119 18341622498778081620
6700243 42 17412502325581696447
7471813 234 18120365707845814493
9849439 229 17841718401024566113

>  <PUBCHEM_SHAPE_MULTIPOLES>  (1) 
537.9
13.1
3.31
1.97
10.4
0.72
-0.11
-3.26
-0.76
-6.83
0.83
1.08
-0.08
-3.69

>  <PUBCHEM_SHAPE_SELFOVERLAP>  (1) 
1156.042

>  <PUBCHEM_SHAPE_VOLUME>  (1) 
294.8

>  <PUBCHEM_COORDINATE_TYPE>  (1) 
2
5
10

$$$$
