9348
     RDKit          3D

 16 17  0  0  0  0  0  0  0  0999 V2000
    0.5017    1.6681    0.0753 O   0  0  0  0  0  0  0  0  0  0  0  0
    4.3291    0.3828    0.5962 O   0  0  0  0  0  0  0  0  0  0  0  0
    3.1622    2.0362   -0.4387 O   0  0  0  0  0  0  0  0  0  0  0  0
   -0.2375   -0.6073   -0.0377 C   0  0  0  0  0  0  0  0  0  0  0  0
   -1.6252   -0.1990   -0.0011 C   0  0  0  0  0  0  0  0  0  0  0  0
    0.7915    0.3355    0.0012 C   0  0  0  0  0  0  0  0  0  0  0  0
    2.1225   -0.0805   -0.0353 C   0  0  0  0  0  0  0  0  0  0  0  0
    0.0689   -1.9672   -0.1128 C   0  0  0  0  0  0  0  0  0  0  0  0
   -2.2808   -0.0660    1.2230 C   0  0  0  0  0  0  0  0  0  0  0  0
   -2.3072    0.0621   -1.1895 C   0  0  0  0  0  0  0  0  0  0  0  0
    2.4265   -1.4398   -0.1105 C   0  0  0  0  0  0  0  0  0  0  0  0
    1.3997   -2.3831   -0.1492 C   0  0  0  0  0  0  0  0  0  0  0  0
   -3.6185    0.3279    1.2586 C   0  0  0  0  0  0  0  0  0  0  0  0
   -3.6448    0.4561   -1.1538 C   0  0  0  0  0  0  0  0  0  0  0  0
   -4.3004    0.5889    0.0703 C   0  0  0  0  0  0  0  0  0  0  0  0
    3.2122    0.8854    0.0040 C   0  0  0  0  0  0  0  0  0  0  0  0
  1  6  1  0
  2 16  1  0
  3 16  2  0
  4  5  1  0
  4  6  2  0
  4  8  1  0
  5  9  2  0
  5 10  1  0
  6  7  1  0
  7 11  2  0
  7 16  1  0
  8 12  2  0
  9 13  1  0
 10 14  2  0
 11 12  1  0
 13 15  2  0
 14 15  1  0
M  END
>  <PUBCHEM_COMPOUND_CID>  (1) 
9348

>  <PUBCHEM_CONFORMER_RMSD>  (1) 
0.6

>  <PUBCHEM_CONFORMER_DIVERSEORDER>  (1) 
1
2

>  <PUBCHEM_MMFF94_PARTIAL_CHARGES>  (1) 
24
1 -0.53
10 -0.15
11 -0.15
12 -0.15
13 -0.15
14 -0.15
15 -0.15
16 0.63
17 0.15
18 0.15
19 0.15
2 -0.65
20 0.15
21 0.15
22 0.15
23 0.15
24 0.15
25 0.45
26 0.5
3 -0.57
6 0.08
7 0.09
8 -0.15
9 -0.15

>  <PUBCHEM_EFFECTIVE_ROTOR_COUNT>  (1) 
2

>  <PUBCHEM_PHARMACOPHORE_FEATURES>  (1) 
6
1 1 donor
1 2 acceptor
1 3 acceptor
3 2 3 16 anion
6 4 6 7 8 11 12 rings
6 5 9 10 13 14 15 rings

>  <PUBCHEM_HEAVY_ATOM_COUNT>  (1) 
16

>  <PUBCHEM_ATOM_DEF_STEREO_COUNT>  (1) 
0

>  <PUBCHEM_ATOM_UDEF_STEREO_COUNT>  (1) 
0

>  <PUBCHEM_BOND_DEF_STEREO_COUNT>  (1) 
0

>  <PUBCHEM_BOND_UDEF_STEREO_COUNT>  (1) 
0

>  <PUBCHEM_ISOTOPIC_ATOM_COUNT>  (1) 
0

>  <PUBCHEM_COMPONENT_COUNT>  (1) 
1

>  <PUBCHEM_CACTVS_TAUTO_COUNT>  (1) 
4

>  <PUBCHEM_CONFORMER_ID>  (1) 
0000248400000001

>  <PUBCHEM_MMFF94_ENERGY>  (1) 
55.0043

>  <PUBCHEM_FEATURE_SELFOVERLAP>  (1) 
30.503

>  <PUBCHEM_SHAPE_FINGERPRINT>  (1) 
10608611 8 18115304475851389629
10980938 120 18341332214659519975
11031198 65 18409451379706122895
11471102 20 18410572851443725862
11543360 7 15338836520900268640
12119455 92 18261104184091131738
12236239 1 17704069565063029415
12346645 6 18341896255814306846
13140716 1 18265893734647085210
13296909 8 14346062136327495031
13380535 76 18410854386545067586
13581323 91 14996284712711863051
13583140 156 16733245941789942504
14251717 144 18341608196394203623
14289901 80 16226053322440500272
14897335 6 18342735234483392262
15219456 202 18113901524757692735
15309172 13 18409451409712942883
15342168 16 18337120063165846141
15375358 24 18040149591980902509
15653759 3 17022623069920019705
15775835 57 18131350808544656813
16945 1 18338238163369815982
1813 80 17483693203783592318
18175812 5 17748827427306607463
18186145 218 18342464728974260734
18219364 16 18335706073963734345
19049666 15 17606113983807760087
19422 9 17703789176560382447
200 152 18272363196888530743
20279233 1 17821731611391910563
204376 136 18337955696355561906
20645464 45 17530965778759189481
20645477 70 18339635621305875439
20715346 28 17894638028295757175
21499 59 18341330071455041127
21524375 3 18340200899004885790
21639500 275 18341040878585584341
2255824 54 18270685242632946222
22854114 111 18410857629123719015
22854114 59 18335143089872049187
231179 274 18186796972357114142
23402539 116 17846212272212666260
23402655 69 18272363127884262965
23557571 272 16877944889183650311
23559900 14 16733268919912994634
25 1 18411419522504493078
2748010 2 18339376265490009566
350125 39 17905896129399455561
474 4 18413389851652382760
57096353 35 17775275076233613493
63268167 104 18343579625211729635
633830 44 18130240314464199388
7364860 26 18129383713787281230
77492 1 17632292329257730039
81539 233 18260550021915267022
8272917 22 18270405971343073879
9981440 41 16336632487025970584

>  <PUBCHEM_SHAPE_MULTIPOLES>  (1) 
311.66
7.33
1.82
1.01
1.54
0.54
0.03
-2.69
0.41
-1.89
-0.16
1.02
-0.07
0.01

>  <PUBCHEM_SHAPE_SELFOVERLAP>  (1) 
684.216

>  <PUBCHEM_SHAPE_VOLUME>  (1) 
168.1

>  <PUBCHEM_COORDINATE_TYPE>  (1) 
2
5
10

$$$$
