9353
     RDKit          3D

 14 15  0  0  0  0  0  0  0  0999 V2000
    3.9210   -0.7917   -0.5192 N   0  0  0  0  0  0  0  0  0  0  0  0
   -1.2031    2.0719    0.1424 N   0  0  0  0  0  0  0  0  0  0  0  0
    2.6772   -0.3355    0.1264 C   0  0  0  0  0  0  0  0  0  0  0  0
    1.6770    0.1295   -0.9827 C   0  0  0  0  0  0  0  0  0  0  0  0
    0.3778    0.6656   -0.5286 C   0  0  0  0  0  0  0  0  0  0  0  0
   -0.8145   -0.0786   -0.3064 C   0  0  0  0  0  0  0  0  0  0  0  0
    3.0547    0.8106    1.0751 C   0  0  0  0  0  0  0  0  0  0  0  0
    2.1276   -1.5191    0.9346 C   0  0  0  0  0  0  0  0  0  0  0  0
   -1.7906    0.8272    0.1140 C   0  0  0  0  0  0  0  0  0  0  0  0
    0.1073    1.9843   -0.2446 C   0  0  0  0  0  0  0  0  0  0  0  0
   -1.1580   -1.4402   -0.4230 C   0  0  0  0  0  0  0  0  0  0  0  0
   -3.0984    0.4380    0.4251 C   0  0  0  0  0  0  0  0  0  0  0  0
   -2.4622   -1.8441   -0.1152 C   0  0  0  0  0  0  0  0  0  0  0  0
   -3.4159   -0.9178    0.3021 C   0  0  0  0  0  0  0  0  0  0  0  0
  1  3  1  0
  2  9  1  0
  2 10  1  0
  3  4  1  0
  3  7  1  0
  3  8  1  0
  4  5  1  0
  5  6  1  0
  5 10  2  0
  6  9  2  0
  6 11  1  0
  9 12  1  0
 11 13  2  0
 12 14  2  0
 13 14  1  0
M  END
>  <PUBCHEM_COMPOUND_CID>  (1) 
9353

>  <PUBCHEM_CONFORMER_RMSD>  (1) 
0.6

>  <PUBCHEM_CONFORMER_DIVERSEORDER>  (1) 
1
6
8
5
2
4
3
9
7

>  <PUBCHEM_MMFF94_PARTIAL_CHARGES>  (1) 
19
1 -0.99
10 -0.3
11 -0.15
12 -0.15
13 -0.15
14 -0.15
2 0.03
23 0.15
24 0.36
25 0.36
26 0.27
27 0.15
28 0.15
29 0.15
3 0.27
30 0.15
4 0.18
5 -0.18
9 -0.15

>  <PUBCHEM_EFFECTIVE_ROTOR_COUNT>  (1) 
2

>  <PUBCHEM_PHARMACOPHORE_FEATURES>  (1) 
7
1 1 cation
1 1 donor
1 2 cation
1 2 donor
3 3 7 8 hydrophobe
5 2 5 6 9 10 rings
6 6 9 11 12 13 14 rings

>  <PUBCHEM_HEAVY_ATOM_COUNT>  (1) 
14

>  <PUBCHEM_ATOM_DEF_STEREO_COUNT>  (1) 
0

>  <PUBCHEM_ATOM_UDEF_STEREO_COUNT>  (1) 
0

>  <PUBCHEM_BOND_DEF_STEREO_COUNT>  (1) 
0

>  <PUBCHEM_BOND_UDEF_STEREO_COUNT>  (1) 
0

>  <PUBCHEM_ISOTOPIC_ATOM_COUNT>  (1) 
0

>  <PUBCHEM_COMPONENT_COUNT>  (1) 
1

>  <PUBCHEM_CACTVS_TAUTO_COUNT>  (1) 
1

>  <PUBCHEM_CONFORMER_ID>  (1) 
0000248900000001

>  <PUBCHEM_MMFF94_ENERGY>  (1) 
18.4457

>  <PUBCHEM_FEATURE_SELFOVERLAP>  (1) 
35.612

>  <PUBCHEM_SHAPE_FINGERPRINT>  (1) 
10130415 120 18335989761128099139
10618630 7 18334574659218767106
11132069 177 18412538825436553682
11578080 2 17750211729895574356
12251169 10 18201717400753937928
12382932 28 18412822512205435739
12500047 106 18191861219682863780
13172582 1 18341905094935882895
13296908 3 18411698807158724078
14144814 61 18410012139163055907
15076042 46 18195241109730840754
15375462 189 18187368743878092475
15775835 57 18338803303693021162
16945 1 18409733950010393597
17804303 29 18271251504242996886
18175812 5 17846499240098977932
19049666 15 17557997138704540542
20361792 2 17240197746507425908
20510252 161 18129665192642182553
20528008 55 18201711860304096257
20645477 70 18048594017587488679
20653085 51 10375589351582545140
20871998 184 18272652320394854863
21501925 9 18269271442741308455
22445834 79 18188490168566227618
232386 152 18337680809579219319
23388829 49 18339917233578731255
23402539 116 18202276984270644405
23463225 33 18408045099965532815
23552423 10 17974576002695621989
23559900 14 18341611482698150468
2748010 2 17906752301645378037
3312278 4 18260551121189433547
427121 178 16338399037355792817
7364860 26 18125725839942926268
75552 356 18412546509148889839
81228 2 18338809909469097937

>  <PUBCHEM_SHAPE_MULTIPOLES>  (1) 
278.15
5.73
1.96
0.91
1.62
0.27
0.05
-1.83
0.9
-0.56
0.08
0.48
-0.04
-0.09

>  <PUBCHEM_SHAPE_SELFOVERLAP>  (1) 
593.248

>  <PUBCHEM_SHAPE_VOLUME>  (1) 
157.8

>  <PUBCHEM_COORDINATE_TYPE>  (1) 
2
5
10

$$$$
