9370
     RDKit          3D

 12 12  0  0  0  0  0  0  0  0999 V2000
    1.9814    3.0513   -0.0008 I   0  0  0  0  0  0  0  0  0  0  0  0
    1.9806   -3.0516    0.0012 I   0  0  0  0  0  0  0  0  0  0  0  0
    3.0544   -0.0003   -0.0006 O   0  0  0  0  0  0  0  0  0  0  0  0
   -3.1289   -1.0976   -0.0015 O   0  0  0  0  0  0  0  0  0  0  0  0
   -3.1292    1.0977    0.0010 O   0  0  0  0  0  0  0  0  0  0  0  0
   -2.5210    0.0002   -0.0001 N   0  0  0  0  0  0  0  0  0  0  0  0
   -1.1011    0.0003    0.0003 C   0  0  0  0  0  0  0  0  0  0  0  0
   -0.4039   -1.2079   -0.0005 C   0  0  0  0  0  0  0  0  0  0  0  0
   -0.4034    1.2082    0.0010 C   0  0  0  0  0  0  0  0  0  0  0  0
    1.6887   -0.0002   -0.0001 C   0  0  0  0  0  0  0  0  0  0  0  0
    0.9915    1.2079    0.0008 C   0  0  0  0  0  0  0  0  0  0  0  0
    0.9910   -1.2081   -0.0007 C   0  0  0  0  0  0  0  0  0  0  0  0
  1 11  1  0
  2 12  1  0
  3 10  1  0
  4  6  1  0
  5  6  2  0
  6  7  1  0
  7  8  2  0
  7  9  1  0
  8 12  1  0
  9 11  2  0
 10 11  1  0
 10 12  2  0
M  CHG  2   4  -1   6   1
M  END
>  <PUBCHEM_COMPOUND_CID>  (1) 
9370

>  <PUBCHEM_CONFORMER_RMSD>  (1) 
0.4

>  <PUBCHEM_CONFORMER_DIVERSEORDER>  (1) 
1

>  <PUBCHEM_MMFF94_PARTIAL_CHARGES>  (1) 
15
1 -0.08
10 0.08
11 0.08
12 0.08
13 0.15
14 0.15
15 0.45
2 -0.08
3 -0.53
4 -0.52
5 -0.52
6 0.91
7 0.13
8 -0.15
9 -0.15

>  <PUBCHEM_EFFECTIVE_ROTOR_COUNT>  (1) 
1

>  <PUBCHEM_PHARMACOPHORE_FEATURES>  (1) 
7
1 1 hydrophobe
1 2 hydrophobe
1 3 donor
1 4 acceptor
1 4 anion
1 5 acceptor
6 7 8 9 10 11 12 rings

>  <PUBCHEM_HEAVY_ATOM_COUNT>  (1) 
12

>  <PUBCHEM_ATOM_DEF_STEREO_COUNT>  (1) 
0

>  <PUBCHEM_ATOM_UDEF_STEREO_COUNT>  (1) 
0

>  <PUBCHEM_BOND_DEF_STEREO_COUNT>  (1) 
0

>  <PUBCHEM_BOND_UDEF_STEREO_COUNT>  (1) 
0

>  <PUBCHEM_ISOTOPIC_ATOM_COUNT>  (1) 
0

>  <PUBCHEM_COMPONENT_COUNT>  (1) 
1

>  <PUBCHEM_CACTVS_TAUTO_COUNT>  (1) 
4

>  <PUBCHEM_CONFORMER_ID>  (1) 
0000249A00000001

>  <PUBCHEM_MMFF94_ENERGY>  (1) 
33.2104

>  <PUBCHEM_FEATURE_SELFOVERLAP>  (1) 
35.602

>  <PUBCHEM_SHAPE_FINGERPRINT>  (1) 
1 1 18338517550960447678
10967382 1 18338517413368493670
13380535 76 17979915243944926484
13380536 305 18338806731314351956
14325111 11 18338797952232601633
14648413 74 18408323280813084321
14817 1 9965700603930612656
16945 1 18410855464496975620
17990270 104 18409728430771832811
20645476 183 17753907309120046604
20645477 70 18336538421884037135
20711985 365 17760649161754091948
20871998 22 18053101714233844662
21040471 1 17978511163169452900
21524375 3 18055072331038560852
2334 1 17978228592944121440
23526114 1 18266458883112526596
23530152 11 18050570943329851950
23552423 10 18411702101477728887
23557571 272 17192631516935214318
241688 4 17906173953933357824
2748010 2 18047760583013839190
63268167 104 18338802204191877873
7364860 26 18411982464115886592
81228 2 17474113094445283218

>  <PUBCHEM_SHAPE_MULTIPOLES>  (1) 
248.24
4.21
3.71
0.65
3.46
0
0
0
0
-3.7
0
-0.14
0
0

>  <PUBCHEM_SHAPE_SELFOVERLAP>  (1) 
478.212

>  <PUBCHEM_SHAPE_VOLUME>  (1) 
158

>  <PUBCHEM_COORDINATE_TYPE>  (1) 
2
5
10

$$$$
