9388
     RDKit          3D

 29 28  0  0  0  0  0  0  0  0999 V2000
    4.4834    0.7063    0.2074 S   0  0  0  0  0  0  0  0  0  0  0  0
   -0.0879   -2.3437    1.0477 F   0  0  0  0  0  0  0  0  0  0  0  0
   -1.3767   -1.8610   -0.6300 F   0  0  0  0  0  0  0  0  0  0  0  0
    1.1585   -2.0236   -1.2804 F   0  0  0  0  0  0  0  0  0  0  0  0
    0.3843   -0.0120   -1.5431 F   0  0  0  0  0  0  0  0  0  0  0  0
   -2.1569   -0.9117    1.7732 F   0  0  0  0  0  0  0  0  0  0  0  0
   -0.2911    0.1475    2.0438 F   0  0  0  0  0  0  0  0  0  0  0  0
    2.3525   -1.3055    1.0736 F   0  0  0  0  0  0  0  0  0  0  0  0
    1.5704    0.7207    0.8904 F   0  0  0  0  0  0  0  0  0  0  0  0
   -2.2633    1.7483    1.3971 F   0  0  0  0  0  0  0  0  0  0  0  0
   -0.7367    1.6721   -0.1439 F   0  0  0  0  0  0  0  0  0  0  0  0
    3.5508   -1.0726   -1.4005 F   0  0  0  0  0  0  0  0  0  0  0  0
    2.7040    0.9186   -1.6366 F   0  0  0  0  0  0  0  0  0  0  0  0
   -2.3194    0.1154   -1.7196 F   0  0  0  0  0  0  0  0  0  0  0  0
   -3.1697    2.0137   -1.0960 F   0  0  0  0  0  0  0  0  0  0  0  0
    3.8717    1.8906    1.0687 F   0  0  0  0  0  0  0  0  0  0  0  0
   -4.7046    0.7591    0.7874 F   0  0  0  0  0  0  0  0  0  0  0  0
   -4.9656    0.0001   -1.2400 F   0  0  0  0  0  0  0  0  0  0  0  0
   -3.8673   -1.1756    0.2225 F   0  0  0  0  0  0  0  0  0  0  0  0
    4.9524   -0.2697    1.1693 O   0  0  0  0  0  0  0  0  0  0  0  0
    5.3862    1.3437   -0.7297 O   0  0  0  0  0  0  0  0  0  0  0  0
   -0.4630   -1.3206    0.2245 C   0  0  0  0  0  0  0  0  0  0  0  0
    0.7532   -0.9128   -0.5975 C   0  0  0  0  0  0  0  0  0  0  0  0
   -1.1627   -0.2793    1.0864 C   0  0  0  0  0  0  0  0  0  0  0  0
    1.9479   -0.3695    0.1768 C   0  0  0  0  0  0  0  0  0  0  0  0
   -1.7505    0.9526    0.4126 C   0  0  0  0  0  0  0  0  0  0  0  0
    3.1230    0.0162   -0.7097 C   0  0  0  0  0  0  0  0  0  0  0  0
   -2.8274    0.7713   -0.6467 C   0  0  0  0  0  0  0  0  0  0  0  0
   -4.0953    0.0813   -0.2079 C   0  0  0  0  0  0  0  0  0  0  0  0
  1 16  1  0
  1 20  2  0
  1 21  2  0
  1 27  1  0
  2 22  1  0
  3 22  1  0
  4 23  1  0
  5 23  1  0
  6 24  1  0
  7 24  1  0
  8 25  1  0
  9 25  1  0
 10 26  1  0
 11 26  1  0
 12 27  1  0
 13 27  1  0
 14 28  1  0
 15 28  1  0
 17 29  1  0
 18 29  1  0
 19 29  1  0
 22 23  1  0
 22 24  1  0
 23 25  1  0
 24 26  1  0
 25 27  1  0
 26 28  1  0
 28 29  1  0
M  END
>  <PUBCHEM_COMPOUND_CID>  (1) 
9388

>  <PUBCHEM_CONFORMER_RMSD>  (1) 
1

>  <PUBCHEM_CONFORMER_DIVERSEORDER>  (1) 
1
134
43
90
182
222
58
161
21
183
42
12
136
179
120
84
37
187
59
133
173
227
171
131
62
29
121
197
128
165
108
36
8
49
64
139
14
168
160
102
233
185
3
229
88
145
15
195
166
163
87
176
7
32
119
25
50
53
89
61
138
193
73
41
143
18
24
180
188
223
72
116
26
237
68
132
125
65
199
31
117
113
181
86
144
169
167
141
46
93
97
191
22
100
154
190
212
38
82
4
118
33
28
225
208
219
69
147
189
155
202
94
170
162
48
220
71
104
123
52
232
106
57
217
192
153
99
226
60
98
111
178
214
13
158
135
96
5
55
186
206
34
151
85
63
157
150
148
211
40
142
67
45
92
200
164
39
175
54
140
83
156
47
213
184
122
235
224
172
20
27
198
215
78
107
35
109
10
174
231
152
11
51
75
221
126
115
23
77
19
137
159
66
205
44
177
95
30
16
201
76
207
124
17
56
236
146
91
79
234
149
216
101
9
130
112
218
114
209
204
203
74
70
194
228
196
105
127
103
129
230
80
81
2
210
110
6

>  <PUBCHEM_MMFF94_PARTIAL_CHARGES>  (1) 
29
1 1.39
10 -0.34
11 -0.34
12 -0.34
13 -0.34
14 -0.34
15 -0.34
16 -0.2
17 -0.34
18 -0.34
19 -0.34
2 -0.34
20 -0.65
21 -0.65
22 0.68
23 0.68
24 0.68
25 0.68
26 0.68
27 0.79
28 0.68
29 1.02
3 -0.34
4 -0.34
5 -0.34
6 -0.34
7 -0.34
8 -0.34
9 -0.34

>  <PUBCHEM_EFFECTIVE_ROTOR_COUNT>  (1) 
8

>  <PUBCHEM_PHARMACOPHORE_FEATURES>  (1) 
0

>  <PUBCHEM_HEAVY_ATOM_COUNT>  (1) 
29

>  <PUBCHEM_ATOM_DEF_STEREO_COUNT>  (1) 
0

>  <PUBCHEM_ATOM_UDEF_STEREO_COUNT>  (1) 
0

>  <PUBCHEM_BOND_DEF_STEREO_COUNT>  (1) 
0

>  <PUBCHEM_BOND_UDEF_STEREO_COUNT>  (1) 
0

>  <PUBCHEM_ISOTOPIC_ATOM_COUNT>  (1) 
0

>  <PUBCHEM_COMPONENT_COUNT>  (1) 
1

>  <PUBCHEM_CACTVS_TAUTO_COUNT>  (1) 
1

>  <PUBCHEM_CONFORMER_ID>  (1) 
000024AC00000001

>  <PUBCHEM_MMFF94_ENERGY>  (1) 
18.3185

>  <PUBCHEM_FEATURE_SELFOVERLAP>  (1) 
0

>  <PUBCHEM_SHAPE_FINGERPRINT>  (1) 
10646746 165 18410855473503732552
10863032 1 18187079520970381131
10948715 1 18040994012136058163
11370993 70 17022619775542967210
12011746 2 18410292527703120252
12077114 3 18041001769205599984
121448 382 18409449198047775115
12236239 1 16370721543437698824
12403259 415 18187932720302369325
12403260 363 17749106694839089213
12403814 3 18113051645482709349
12596602 18 15864353579511103008
12633257 1 14345802604032796533
12670546 177 16917069979528998092
12670546 56 17095233722802178992
12788726 201 14476692866334392371
128620 24 18408042896721007045
13224815 77 18343023259221652912
13288520 33 11815906651882287076
13533116 47 18187636969429535810
13583140 156 18186804725010454304
14251764 30 12823008772387368901
14787075 74 18341886446198439631
15061688 2 17749382616586538325
15238133 3 16153709791360919828
16945 1 17775273946462126347
17349148 13 17821727238814360372
17492 54 18269821129904259605
17804303 29 8646765603861704903
1813 80 10447927291184503954
18186145 218 18338804407357113308
19141452 34 11386370352400747929
192875 21 17821729437706215365
19862831 5 16630526210958504125
200 152 18410011052689174343
21033648 29 18261097578764389472
23175994 123 10664101151440567291
23184049 59 14056716851053191360
23227448 37 18125154081370101592
23402539 116 17603861222037529759
23419403 2 17056956587618667019
23557571 272 18267311000244715763
23559900 14 18335713736718413262
296302 2 18409450267525818799
3323516 105 16415469471907055443
351380 180 17022618680342280181
4340502 62 17022905627734930571
465052 167 10663523955465896461
474 4 18413111684122509756
633830 44 18059298655961261077
9981440 41 17967531246923223211

>  <PUBCHEM_SHAPE_MULTIPOLES>  (1) 
457.99
9.16
1.79
1.56
3.18
0.2
-0.06
-3.16
0.73
0
-0.05
-0.03
0.02
0.24

>  <PUBCHEM_SHAPE_SELFOVERLAP>  (1) 
981.274

>  <PUBCHEM_SHAPE_VOLUME>  (1) 
253.2

>  <PUBCHEM_COORDINATE_TYPE>  (1) 
2
5
10

$$$$
