939
     RDKit          3D

 22 23  0  0  1  0  0  0  0  0999 V2000
    5.0261   -1.2956    0.3154 P   0  0  0  0  0  0  0  0  0  0  0  0
    0.8635   -0.1044    0.2125 O   0  0  0  0  0  0  0  0  0  0  0  0
    1.6825    3.0943   -1.1912 O   0  0  0  0  0  0  0  0  0  0  0  0
   -0.9220    2.9840    0.4853 O   0  0  0  0  0  0  0  0  0  0  0  0
    3.5666   -0.7919   -0.1697 O   0  0  0  0  0  0  0  0  0  0  0  0
    5.0538   -0.9320    1.8910 O   0  0  0  0  0  0  0  0  0  0  0  0
    6.0205   -0.1997   -0.3367 O   0  0  0  0  0  0  0  0  0  0  0  0
    5.3484   -2.7226   -0.0195 O   0  0  0  0  0  0  0  0  0  0  0  0
   -5.2643    0.1982    1.7228 O   0  0  0  0  0  0  0  0  0  0  0  0
   -1.5395   -0.1075   -0.0920 N   0  0  0  0  0  0  0  0  0  0  0  0
   -6.2122   -1.2103    0.1811 N   0  0  0  0  0  0  0  0  0  0  0  0
    1.2732    2.1897   -0.1832 C   0  0  0  0  0  0  0  0  0  0  0  0
   -0.2245    1.9744   -0.2223 C   0  0  0  0  0  0  0  0  0  0  0  0
    1.7899    0.7826   -0.4374 C   0  0  0  0  0  0  0  0  0  0  0  0
   -0.3608    0.6158    0.4486 C   0  0  0  0  0  0  0  0  0  0  0  0
    3.1863    0.5456    0.1091 C   0  0  0  0  0  0  0  0  0  0  0  0
   -2.7266    0.0140    0.5290 C   0  0  0  0  0  0  0  0  0  0  0  0
   -1.3947   -0.8685   -1.1917 C   0  0  0  0  0  0  0  0  0  0  0  0
   -3.8450   -0.6497    0.0453 C   0  0  0  0  0  0  0  0  0  0  0  0
   -2.4785   -1.5554   -1.7199 C   0  0  0  0  0  0  0  0  0  0  0  0
   -3.7149   -1.4418   -1.0915 C   0  0  0  0  0  0  0  0  0  0  0  0
   -5.1277   -0.5190    0.7151 C   0  0  0  0  0  0  0  0  0  0  0  0
  1  5  1  0
  1  6  1  0
  1  7  1  0
  1  8  2  0
  2 14  1  0
  2 15  1  0
  3 12  1  0
  4 13  1  0
  5 16  1  0
  9 22  2  0
 10 15  1  0
 10 17  2  0
 10 18  1  0
 11 22  1  0
 12 13  1  0
 12 14  1  0
 13 15  1  0
 14 16  1  0
 17 19  1  0
 18 20  2  0
 19 21  2  0
 19 22  1  0
 20 21  1  0
M  CHG  1  10   1
M  END
>  <PUBCHEM_COMPOUND_CID>  (1) 
939

>  <PUBCHEM_CONFORMER_RMSD>  (1) 
0.8

>  <PUBCHEM_CONFORMER_DIVERSEORDER>  (1) 
4
296
377
67
332
305
329
118
96
23
282
201
293
358
186
37
422
436
312
30
270
106
150
152
220
330
133
279
189
339
174
206
263
401
226
217
160
372
1
415
423
119
392
132
437
320
109
421
262
418
340
173
430
308
351
309
317
7
219
241
70
64
187
211
112
129
325
181
375
26
204
323
367
439
17
89
15
151
272
294
134
302
337
318
274
268
295
331
131
400
276
356
39
24
420
253
147
57
104
277
165
16
20
414
380
142
313
156
123
172
428
303
124
69
410
31
391
336
190
244
139
321
376
212
117
382
176
12
32
145
434
230
214
315
28
240
338
322
385
233
196
443
194
371
267
271
259
368
353
232
409
61
266
235
249
213
424
388
327
73
334
78
289
47
387
399
182
345
250
352
341
59
110
281
354
90
275
269
92
149
379
208
403
228
125
14
324
66
221
406
48
298
136
180
79
426
307
433
93
408
195
407
405
237
258
51
29
297
411
223
265
251
94
257
342
143
239
384
10
369
222
359
84
27
413
438
98
130
304
114
218
33
316
71
238
99
95
429
248
378
198
2
373
285
381
319
100
82
207
252
419
177
264
13
179
435
200
326
65
278
126
393
287
63
111
425
21
347
349
328
191
216
440
254
288
161
148
154
19
72
122
255
301
137
398
242
185
202
402
362
256
280
192
113
370
234
291
300
310
394
168
432
224
199
260
108
138
127
396
41
441
284
197
52
390
120
153
299
50
335
22
103
348
290
158
360
121
169
107
163
366
175
431
141
3
311
365
292
88
135
417
157
140
427
193
76
246
11
383
412
397
55
404
171
346
87
183
144
75
85
333
167
314
386
357
203
58
416
215
231
355
53
364
101
162
159
8
170
116
49
178
227
38
146
225
74
236
34
35
247
45
286
18
210
115
442
97
80
229
128
86
164
389
350
261
43
374
68
363
361
283
5
155
166
343
56
40
306
25
395
62
9
42
205
83
46
91
273
245
243
209
184
6
188
44
60
81
77
36
54
105
102
344

>  <PUBCHEM_MMFF94_PARTIAL_CHARGES>  (1) 
32
1 1.51
10 -0.21
11 -0.8
12 0.28
13 0.28
14 0.28
15 0.77
16 0.28
17 0.21
18 0.21
19 0.09
2 -0.56
20 -0.15
21 -0.15
22 0.54
29 0.4
3 -0.68
30 0.4
31 0.15
32 0.15
33 0.15
34 0.15
35 0.5
36 0.5
37 0.37
38 0.37
4 -0.68
5 -0.55
6 -0.77
7 -0.77
8 -0.7
9 -0.57

>  <PUBCHEM_EFFECTIVE_ROTOR_COUNT>  (1) 
6

>  <PUBCHEM_PHARMACOPHORE_FEATURES>  (1) 
13
1 11 donor
1 2 acceptor
1 3 acceptor
1 3 donor
1 4 acceptor
1 4 donor
1 6 acceptor
1 7 acceptor
1 8 acceptor
1 9 acceptor
4 1 6 7 8 anion
5 2 12 13 14 15 rings
6 10 17 18 19 20 21 rings

>  <PUBCHEM_HEAVY_ATOM_COUNT>  (1) 
22

>  <PUBCHEM_ATOM_DEF_STEREO_COUNT>  (1) 
0

>  <PUBCHEM_ATOM_UDEF_STEREO_COUNT>  (1) 
4

>  <PUBCHEM_BOND_DEF_STEREO_COUNT>  (1) 
0

>  <PUBCHEM_BOND_UDEF_STEREO_COUNT>  (1) 
0

>  <PUBCHEM_ISOTOPIC_ATOM_COUNT>  (1) 
0

>  <PUBCHEM_COMPONENT_COUNT>  (1) 
1

>  <PUBCHEM_CACTVS_TAUTO_COUNT>  (1) 
2

>  <PUBCHEM_CONFORMER_ID>  (1) 
000003AB00000004

>  <PUBCHEM_MMFF94_ENERGY>  (1) 
27.8106

>  <PUBCHEM_FEATURE_SELFOVERLAP>  (1) 
66.012

>  <PUBCHEM_SHAPE_FINGERPRINT>  (1) 
10062212 137 17988079014897231431
11265709 11 18410573985610757444
12107183 9 18341623586005921513
12236239 1 18201161044070986779
12422481 6 17987524718843897319
12553582 1 18336252488435867570
12633257 1 18341614862410502279
13551218 46 18201158754379372558
13782708 43 17095524041269825939
1420 369 18409726236492008898
14251764 30 17240771717779698963
14739800 52 16986868179987870496
14840074 17 18272088284115849134
15042514 8 18195248819403391464
15183329 4 8069754035668057112
15375358 24 14333417765466371383
15537594 2 18413107260522765142
15806764 133 16950551238345224293
17980427 23 16199859678813394217
1813 80 18335430045190217244
19141452 34 17917990589806775911
19784866 140 17894627032889180050
20600515 1 16343714261268998585
21267235 1 18411144636092211894
21365058 113 17240492415634252677
22182313 1 17985838025130985181
22950370 63 18410576201555289358
23175994 123 18040154028523941741
23402539 116 18408879608100930430
23559900 14 16443629103319648447
23622692 88 18131350821524543503
25147074 1 17986390199127336357
2838139 119 9799693683963619098
312425 54 17560794429567492554
34797466 226 15357985576881705438
351380 3 18409165502588783514
46194498 28 16660648496491648550
465052 167 18409739486012540319
5104073 3 17987524891244002411
5207 217 9511452317406977449
56633871 153 18201718409987532470
7064713 232 17418375796127213918
7970288 3 18334853900976859138
8863177 126 17677909009452671987

>  <PUBCHEM_SHAPE_MULTIPOLES>  (1) 
399.68
13.1
2.57
1.24
3.88
1.59
0.07
-9.42
4.08
2
-0.61
-0.56
-0.22
-1.44

>  <PUBCHEM_SHAPE_SELFOVERLAP>  (1) 
824.074

>  <PUBCHEM_SHAPE_VOLUME>  (1) 
232.4

>  <PUBCHEM_COORDINATE_TYPE>  (1) 
2
5
10

$$$$
