9405
     RDKit          3D

 10  9  0  0  0  0  0  0  0  0999 V2000
   -0.0654   -0.1065    0.0173 N   0  0  0  0  0  0  0  0  0  0  0  0
    0.7546   -2.2870   -0.3673 N   0  0  0  0  0  0  0  0  0  0  0  0
    2.2063   -0.7161    0.5081 N   0  0  0  0  0  0  0  0  0  0  0  0
   -1.4466   -0.5641    0.1563 C   0  0  0  0  0  0  0  0  0  0  0  0
    0.1132    1.3334   -0.1605 C   0  0  0  0  0  0  0  0  0  0  0  0
   -2.2167   -0.2290   -1.1140 C   0  0  0  0  0  0  0  0  0  0  0  0
   -2.0790    0.0906    1.3777 C   0  0  0  0  0  0  0  0  0  0  0  0
    0.8046    1.5927   -1.4926 C   0  0  0  0  0  0  0  0  0  0  0  0
    0.9220    1.8933    1.0025 C   0  0  0  0  0  0  0  0  0  0  0  0
    1.0070   -1.0074    0.0724 C   0  0  0  0  0  0  0  0  0  0  0  0
  1  4  1  0
  1  5  1  0
  1 10  1  0
  2 10  1  0
  3 10  2  0
  4  6  1  0
  4  7  1  0
  5  8  1  0
  5  9  1  0
M  END
>  <PUBCHEM_COMPOUND_CID>  (1) 
9405

>  <PUBCHEM_CONFORMER_RMSD>  (1) 
0.6

>  <PUBCHEM_CONFORMER_DIVERSEORDER>  (1) 
1
4
7
3
6
5
2

>  <PUBCHEM_MMFF94_PARTIAL_CHARGES>  (1) 
9
1 -0.79
10 0.55
2 -0.85
25 0.4
26 0.4
27 0.4
3 -0.85
4 0.37
5 0.37

>  <PUBCHEM_EFFECTIVE_ROTOR_COUNT>  (1) 
3

>  <PUBCHEM_PHARMACOPHORE_FEATURES>  (1) 
5
1 2 donor
1 3 donor
3 4 6 7 hydrophobe
3 5 8 9 hydrophobe
4 1 2 3 10 cation

>  <PUBCHEM_HEAVY_ATOM_COUNT>  (1) 
10

>  <PUBCHEM_ATOM_DEF_STEREO_COUNT>  (1) 
0

>  <PUBCHEM_ATOM_UDEF_STEREO_COUNT>  (1) 
0

>  <PUBCHEM_BOND_DEF_STEREO_COUNT>  (1) 
0

>  <PUBCHEM_BOND_UDEF_STEREO_COUNT>  (1) 
0

>  <PUBCHEM_ISOTOPIC_ATOM_COUNT>  (1) 
0

>  <PUBCHEM_COMPONENT_COUNT>  (1) 
1

>  <PUBCHEM_CACTVS_TAUTO_COUNT>  (1) 
1

>  <PUBCHEM_CONFORMER_ID>  (1) 
000024BD00000001

>  <PUBCHEM_MMFF94_ENERGY>  (1) 
27.9341

>  <PUBCHEM_FEATURE_SELFOVERLAP>  (1) 
25.42

>  <PUBCHEM_SHAPE_FINGERPRINT>  (1) 
12423570 1 17394127317096265917
16945 1 18342168930091590291
18185500 45 18201440250920109475
20653091 64 18115610225782641497
21040471 1 17833835249716846837
21922407 69 17703785985325549011
29004967 10 18261402087360077739
5084963 1 17899979635918704019
528862 383 18044116732543602512

>  <PUBCHEM_SHAPE_MULTIPOLES>  (1) 
190.85
2.54
2.04
1.32
1.08
0.65
-0.1
-0.11
0.2
-1.16
-0.11
0.24
-0.55
-0.18

>  <PUBCHEM_SHAPE_SELFOVERLAP>  (1) 
354.436

>  <PUBCHEM_SHAPE_VOLUME>  (1) 
118.3

>  <PUBCHEM_COORDINATE_TYPE>  (1) 
2
5
10

$$$$
