9414
     RDKit          3D

 16 16  0  0  0  0  0  0  0  0999 V2000
    2.1913   -0.0029    0.9663 O   0  0  0  0  0  0  0  0  0  0  0  0
    2.6777    0.0012   -1.3073 O   0  0  0  0  0  0  0  0  0  0  0  0
   -3.2283    0.0036   -0.2978 N   0  0  0  0  0  0  0  0  0  0  0  0
    4.3778   -0.0022    0.2713 N   0  0  0  0  0  0  0  0  0  0  0  0
   -1.8512    0.0020    0.0236 C   0  0  0  0  0  0  0  0  0  0  0  0
   -1.1708    1.2093    0.1839 C   0  0  0  0  0  0  0  0  0  0  0  0
   -1.1728   -1.2068    0.1796 C   0  0  0  0  0  0  0  0  0  0  0  0
    0.1878    1.2077    0.4996 C   0  0  0  0  0  0  0  0  0  0  0  0
    0.1858   -1.2083    0.4956 C   0  0  0  0  0  0  0  0  0  0  0  0
    0.8661   -0.0012    0.6556 C   0  0  0  0  0  0  0  0  0  0  0  0
   -1.8710    2.5193    0.0212 C   0  0  0  0  0  0  0  0  0  0  0  0
   -1.8744   -2.5160    0.0154 C   0  0  0  0  0  0  0  0  0  0  0  0
   -3.6554    0.0059   -1.6808 C   0  0  0  0  0  0  0  0  0  0  0  0
   -4.2234   -0.0112    0.7535 C   0  0  0  0  0  0  0  0  0  0  0  0
    3.0612   -0.0002   -0.1412 C   0  0  0  0  0  0  0  0  0  0  0  0
    5.4997   -0.0001   -0.6384 C   0  0  0  0  0  0  0  0  0  0  0  0
  1 10  1  0
  1 15  1  0
  2 15  2  0
  3  5  1  0
  3 13  1  0
  3 14  1  0
  4 15  1  0
  4 16  1  0
  5  6  2  0
  5  7  1  0
  6  8  1  0
  6 11  1  0
  7  9  2  0
  7 12  1  0
  8 10  2  0
  9 10  1  0
M  END
>  <PUBCHEM_COMPOUND_CID>  (1) 
9414

>  <PUBCHEM_CONFORMER_RMSD>  (1) 
0.6

>  <PUBCHEM_CONFORMER_DIVERSEORDER>  (1) 
1
8
4
7
13
5
3
10
12
11
9
6
2

>  <PUBCHEM_MMFF94_PARTIAL_CHARGES>  (1) 
19
1 -0.23
10 0.08
11 0.14
12 0.14
13 0.37
14 0.37
15 0.78
16 0.3
17 0.15
18 0.15
2 -0.57
3 -0.84
31 0.37
4 -0.73
5 0.1
6 -0.14
7 -0.14
8 -0.15
9 -0.15

>  <PUBCHEM_EFFECTIVE_ROTOR_COUNT>  (1) 
4

>  <PUBCHEM_PHARMACOPHORE_FEATURES>  (1) 
4
1 2 acceptor
1 3 cation
1 4 donor
6 5 6 7 8 9 10 rings

>  <PUBCHEM_HEAVY_ATOM_COUNT>  (1) 
16

>  <PUBCHEM_ATOM_DEF_STEREO_COUNT>  (1) 
0

>  <PUBCHEM_ATOM_UDEF_STEREO_COUNT>  (1) 
0

>  <PUBCHEM_BOND_DEF_STEREO_COUNT>  (1) 
0

>  <PUBCHEM_BOND_UDEF_STEREO_COUNT>  (1) 
0

>  <PUBCHEM_ISOTOPIC_ATOM_COUNT>  (1) 
0

>  <PUBCHEM_COMPONENT_COUNT>  (1) 
1

>  <PUBCHEM_CACTVS_TAUTO_COUNT>  (1) 
2

>  <PUBCHEM_CONFORMER_ID>  (1) 
000024C600000001

>  <PUBCHEM_MMFF94_ENERGY>  (1) 
65.3528

>  <PUBCHEM_FEATURE_SELFOVERLAP>  (1) 
20.297

>  <PUBCHEM_SHAPE_FINGERPRINT>  (1) 
11206711 2 18339067199643220533
12119455 92 13695583364805926792
12236239 1 17675924292353763426
12390115 104 18056494867130763465
12403814 3 17312820494223225327
13140716 1 18266742570171020203
13538477 17 18114450236704780082
14115302 16 18261396684438691534
14911166 2 18411128156560958711
14943859 89 18259984889939059514
14993402 34 18259697895860717189
16752209 62 18265877104249066665
16945 1 18410844465423314971
17870717 6 18271542930933239326
18186145 218 18335695087252898184
187816 3 18411131442242582199
200 152 15647055983821374801
20279233 1 17775012301560548006
20510252 161 18272091535047272849
20645476 183 17603862325459379739
20645477 70 16845301484694004326
20871999 31 18343016653615160516
21029758 27 18187652422510947641
21119208 17 17967532376552232438
21501502 16 18123180204489405563
21637258 2 15338537410967052845
2334 1 17905599253012711579
23379529 103 17339820273543906591
23402539 116 18342452629887883588
23493267 7 17458897163851257905
23557571 272 18269566094625260558
23559900 14 18341330085347381776
2748010 2 18051118487398879067
2838139 119 16081908378952557599
3286 77 16271631399548155393
353137 74 18334572395923866097
4175511 318 18040710376996688671
53812653 8 18335979770802092833
559249 180 18192145989622294034
9709674 26 18201446826947816582

>  <PUBCHEM_SHAPE_MULTIPOLES>  (1) 
307.57
8.33
1.83
1.05
9.72
0.01
-0.34
-0.01
-2.06
-1.68
0.14
-0.34
0
0

>  <PUBCHEM_SHAPE_SELFOVERLAP>  (1) 
627.674

>  <PUBCHEM_SHAPE_VOLUME>  (1) 
179.6

>  <PUBCHEM_COORDINATE_TYPE>  (1) 
2
5
10

$$$$
