9417
     RDKit          3D

 27 30  0  0  0  0  0  0  0  0999 V2000
    7.6660    0.6517    0.6548 O   0  0  0  0  0  0  0  0  0  0  0  0
    1.5389   -1.2631    0.0536 N   0  0  0  0  0  0  0  0  0  0  0  0
    4.4131   -0.9539    0.0072 N   0  0  0  0  0  0  0  0  0  0  0  0
   -1.7031   -0.0595   -0.7211 N   0  0  0  0  0  0  0  0  0  0  0  0
    2.3669   -1.9755   -0.9273 C   0  0  0  0  0  0  0  0  0  0  0  0
    2.2993   -1.0188    1.2854 C   0  0  0  0  0  0  0  0  0  0  0  0
    3.6525   -1.1962   -1.2247 C   0  0  0  0  0  0  0  0  0  0  0  0
    3.5857   -0.2406    0.9879 C   0  0  0  0  0  0  0  0  0  0  0  0
    0.3146   -2.0088    0.3387 C   0  0  0  0  0  0  0  0  0  0  0  0
   -0.5327   -2.2211   -0.9197 C   0  0  0  0  0  0  0  0  0  0  0  0
    5.6386   -0.2099   -0.2770 C   0  0  0  0  0  0  0  0  0  0  0  0
   -0.9502   -0.9340   -1.6302 C   0  0  0  0  0  0  0  0  0  0  0  0
    6.4799   -0.0608    0.9805 C   0  0  0  0  0  0  0  0  0  0  0  0
   -2.9380   -0.5628   -0.2391 C   0  0  0  0  0  0  0  0  0  0  0  0
   -1.2710    1.2886   -0.6396 C   0  0  0  0  0  0  0  0  0  0  0  0
   -3.4408   -0.2443    1.0388 C   0  0  0  0  0  0  0  0  0  0  0  0
   -1.3757    2.0492    0.5427 C   0  0  0  0  0  0  0  0  0  0  0  0
   -3.7322   -1.3993   -1.0601 C   0  0  0  0  0  0  0  0  0  0  0  0
   -0.7333    1.9316   -1.7805 C   0  0  0  0  0  0  0  0  0  0  0  0
   -2.6973    0.5229    2.0443 C   0  0  0  0  0  0  0  0  0  0  0  0
   -1.8142    1.5037    1.8321 C   0  0  0  0  0  0  0  0  0  0  0  0
   -4.6834   -0.7664    1.4553 C   0  0  0  0  0  0  0  0  0  0  0  0
   -0.9399    3.3909    0.5562 C   0  0  0  0  0  0  0  0  0  0  0  0
   -4.9653   -1.9002   -0.6391 C   0  0  0  0  0  0  0  0  0  0  0  0
   -0.3158    3.2635   -1.7559 C   0  0  0  0  0  0  0  0  0  0  0  0
   -5.4426   -1.5823    0.6216 C   0  0  0  0  0  0  0  0  0  0  0  0
   -0.4201    3.9953   -0.5847 C   0  0  0  0  0  0  0  0  0  0  0  0
  1 13  1  0
  2  5  1  0
  2  6  1  0
  2  9  1  0
  3  7  1  0
  3  8  1  0
  3 11  1  0
  4 12  1  0
  4 14  1  0
  4 15  1  0
  5  7  1  0
  6  8  1  0
  9 10  1  0
 10 12  1  0
 11 13  1  0
 14 16  1  0
 14 18  2  0
 15 17  2  0
 15 19  1  0
 16 20  1  0
 16 22  2  0
 17 21  1  0
 17 23  1  0
 18 24  1  0
 19 25  2  0
 20 21  2  0
 22 26  1  0
 23 27  2  0
 24 26  2  0
 25 27  1  0
M  END
>  <PUBCHEM_COMPOUND_CID>  (1) 
9417

>  <PUBCHEM_CONFORMER_RMSD>  (1) 
0.8

>  <PUBCHEM_CONFORMER_DIVERSEORDER>  (1) 
1
25
58
16
49
50
9
60
14
62
63
55
34
48
47
57
35
54
61
46
36
29
23
10
33
7
27
12
59
3
52
18
22
11
17
51
15
8
4
19
41
21
28
42
39
30
26
45
20
37
53
56
5
32
31
40
13
43
38
44
2
24
6

>  <PUBCHEM_MMFF94_PARTIAL_CHARGES>  (1) 
37
1 -0.68
11 0.27
12 0.37
13 0.28
14 0.1
15 0.1
16 0.03
17 0.03
18 -0.15
19 -0.15
2 -0.81
20 -0.18
21 -0.18
22 -0.15
23 -0.15
24 -0.15
25 -0.15
26 -0.15
27 -0.15
3 -0.81
4 -0.57
46 0.15
47 0.15
48 0.15
49 0.15
5 0.27
50 0.15
51 0.15
52 0.4
53 0.15
54 0.15
55 0.15
56 0.15
6 0.27
7 0.27
8 0.27
9 0.27

>  <PUBCHEM_EFFECTIVE_ROTOR_COUNT>  (1) 
7.4

>  <PUBCHEM_PHARMACOPHORE_FEATURES>  (1) 
9
1 1 acceptor
1 1 donor
1 2 cation
1 3 cation
1 4 cation
6 14 16 18 22 24 26 rings
6 15 17 19 23 25 27 rings
6 2 3 5 6 7 8 rings
7 4 14 15 16 17 20 21 rings

>  <PUBCHEM_HEAVY_ATOM_COUNT>  (1) 
27

>  <PUBCHEM_ATOM_DEF_STEREO_COUNT>  (1) 
0

>  <PUBCHEM_ATOM_UDEF_STEREO_COUNT>  (1) 
0

>  <PUBCHEM_BOND_DEF_STEREO_COUNT>  (1) 
0

>  <PUBCHEM_BOND_UDEF_STEREO_COUNT>  (1) 
0

>  <PUBCHEM_ISOTOPIC_ATOM_COUNT>  (1) 
0

>  <PUBCHEM_COMPONENT_COUNT>  (1) 
1

>  <PUBCHEM_CACTVS_TAUTO_COUNT>  (1) 
1

>  <PUBCHEM_CONFORMER_ID>  (1) 
000024C900000001

>  <PUBCHEM_MMFF94_ENERGY>  (1) 
95.1086

>  <PUBCHEM_FEATURE_SELFOVERLAP>  (1) 
45.689

>  <PUBCHEM_SHAPE_FINGERPRINT>  (1) 
10165383 225 16975653908871731725
10369192 42 16988842809304539356
10670039 82 18263098651994111540
1100329 8 18194125337811212335
11036077 3 10159704603097974681
11315181 36 14057007109612769774
11595378 159 18335129853004733722
12156800 1 16268877058269578160
12166972 35 17167863097488934350
12596602 18 17240473698957930416
12788726 201 18041829632536221075
13004483 165 18191867813180317291
133893 2 17686311554647693551
13911987 19 17677632975819768750
13947920 75 11458416960312785164
14400156 266 18131082541194054421
14415361 192 17750773554820907352
14840074 17 18337960111603489508
14955137 171 18269848656471504607
17899979 19 18261951950653994252
17980427 23 17918002659661623573
1813 80 18410018749460525079
18336668 15 18341895246771058569
18393751 57 18342737472794674498
20600515 1 18041581186243547679
20721686 146 16271381703541007385
21304303 282 16227158194657162077
21344244 246 17977660145575064087
25019877 29 17346605217827244358
392239 28 18259993690522104634
4015057 19 12540992818871105182
4058900 60 11311517782920277023
469060 322 18334863796475111024
5265222 85 10375870792738231154
58260988 521 11383547979746907213
6287921 2 18130804325501129886
6786 2 17187007493294029265
7399639 24 18201160953734963942

>  <PUBCHEM_SHAPE_MULTIPOLES>  (1) 
534.83
12.11
3.6
1.78
20.25
4.23
0.09
-6.08
4.16
-1.84
-1.26
-0.76
0.45
-0.05

>  <PUBCHEM_SHAPE_SELFOVERLAP>  (1) 
1138.547

>  <PUBCHEM_SHAPE_VOLUME>  (1) 
296.1

>  <PUBCHEM_COORDINATE_TYPE>  (1) 
2
5
10

$$$$
