9429
     RDKit          3D

 30 33  0  0  0  0  0  0  0  0999 V2000
   -0.3508   -2.7550   -1.5997 S   0  0  0  0  0  0  0  0  0  0  0  0
   -4.7533    1.5414   -0.1597 S   0  0  0  0  0  0  0  0  0  0  0  0
   -4.0946    2.7573    0.3052 O   0  0  0  0  0  0  0  0  0  0  0  0
   -5.6649    1.6354   -1.2947 O   0  0  0  0  0  0  0  0  0  0  0  0
    2.9532    1.3298   -0.4797 N   0  0  0  0  0  0  0  0  0  0  0  0
    5.7925    1.7991   -0.2037 N   0  0  0  0  0  0  0  0  0  0  0  0
    0.0189   -0.4342    0.4352 N   0  0  0  0  0  0  0  0  0  0  0  0
   -5.5912    0.8187    1.1702 N   0  0  0  0  0  0  0  0  0  0  0  0
    3.9023    0.8873   -1.5087 C   0  0  0  0  0  0  0  0  0  0  0  0
    3.4654    2.5188    0.2121 C   0  0  0  0  0  0  0  0  0  0  0  0
    1.6400    1.5947   -1.0643 C   0  0  0  0  0  0  0  0  0  0  0  0
    5.2802    0.6111   -0.8973 C   0  0  0  0  0  0  0  0  0  0  0  0
    4.8429    2.2420    0.8245 C   0  0  0  0  0  0  0  0  0  0  0  0
    0.5935    1.9247    0.0045 C   0  0  0  0  0  0  0  0  0  0  0  0
    0.3995    0.8384    1.0618 C   0  0  0  0  0  0  0  0  0  0  0  0
    7.1049    1.5326    0.3821 C   0  0  0  0  0  0  0  0  0  0  0  0
   -1.2443   -0.4943   -0.2059 C   0  0  0  0  0  0  0  0  0  0  0  0
    0.9133   -1.5252    0.5778 C   0  0  0  0  0  0  0  0  0  0  0  0
   -1.5410   -1.5146   -1.1313 C   0  0  0  0  0  0  0  0  0  0  0  0
    0.8302   -2.6476   -0.2698 C   0  0  0  0  0  0  0  0  0  0  0  0
   -2.2704    0.4342    0.0751 C   0  0  0  0  0  0  0  0  0  0  0  0
   -3.5199    0.3674   -0.5473 C   0  0  0  0  0  0  0  0  0  0  0  0
    1.8983   -1.5575    1.5891 C   0  0  0  0  0  0  0  0  0  0  0  0
   -2.7983   -1.5741   -1.7584 C   0  0  0  0  0  0  0  0  0  0  0  0
   -3.7831   -0.6360   -1.4673 C   0  0  0  0  0  0  0  0  0  0  0  0
    1.7142   -3.7308   -0.1188 C   0  0  0  0  0  0  0  0  0  0  0  0
    2.7712   -2.6388    1.7380 C   0  0  0  0  0  0  0  0  0  0  0  0
    2.6811   -3.7253    0.8812 C   0  0  0  0  0  0  0  0  0  0  0  0
   -6.2364   -0.4990    0.9411 C   0  0  0  0  0  0  0  0  0  0  0  0
   -4.9531    0.8996    2.5087 C   0  0  0  0  0  0  0  0  0  0  0  0
  1 19  1  0
  1 20  1  0
  2  3  2  0
  2  4  2  0
  2  8  1  0
  2 22  1  0
  5  9  1  0
  5 10  1  0
  5 11  1  0
  6 12  1  0
  6 13  1  0
  6 16  1  0
  7 15  1  0
  7 17  1  0
  7 18  1  0
  8 29  1  0
  8 30  1  0
  9 12  1  0
 10 13  1  0
 11 14  1  0
 14 15  1  0
 17 19  2  0
 17 21  1  0
 18 20  2  0
 18 23  1  0
 19 24  1  0
 20 26  1  0
 21 22  2  0
 22 25  1  0
 23 27  2  0
 24 25  2  0
 26 28  2  0
 27 28  1  0
M  END
>  <PUBCHEM_COMPOUND_CID>  (1) 
9429

>  <PUBCHEM_CONFORMER_RMSD>  (1) 
1

>  <PUBCHEM_CONFORMER_DIVERSEORDER>  (1) 
4
20
47
2
46
56
38
49
18
37
25
11
39
9
36
32
55
7
21
14
23
42
12
30
54
45
31
52
1
5
28
27
41
22
29
10
34
17
6
50
33
13
43
3
8
16
15
53
26
51
35
48
40
24
19
44

>  <PUBCHEM_MMFF94_PARTIAL_CHARGES>  (1) 
36
1 -0.2
10 0.27
11 0.27
12 0.27
13 0.27
15 0.37
16 0.27
17 0.1
18 0.1
19 0.1
2 1.45
20 0.1
21 -0.15
22 -0.01
23 -0.15
24 -0.15
25 -0.15
26 -0.15
27 -0.15
28 -0.15
29 0.36
3 -0.65
30 0.36
4 -0.65
48 0.15
49 0.15
5 -0.81
50 0.15
51 0.15
52 0.15
53 0.15
54 0.15
6 -0.81
7 -0.57
8 -0.85
9 0.27

>  <PUBCHEM_EFFECTIVE_ROTOR_COUNT>  (1) 
7.6

>  <PUBCHEM_PHARMACOPHORE_FEATURES>  (1) 
9
1 3 acceptor
1 4 acceptor
1 5 cation
1 6 cation
1 7 cation
6 1 7 17 18 19 20 rings
6 17 19 21 22 24 25 rings
6 18 20 23 26 27 28 rings
6 5 6 9 10 12 13 rings

>  <PUBCHEM_HEAVY_ATOM_COUNT>  (1) 
30

>  <PUBCHEM_ATOM_DEF_STEREO_COUNT>  (1) 
0

>  <PUBCHEM_ATOM_UDEF_STEREO_COUNT>  (1) 
0

>  <PUBCHEM_BOND_DEF_STEREO_COUNT>  (1) 
0

>  <PUBCHEM_BOND_UDEF_STEREO_COUNT>  (1) 
0

>  <PUBCHEM_ISOTOPIC_ATOM_COUNT>  (1) 
0

>  <PUBCHEM_COMPONENT_COUNT>  (1) 
1

>  <PUBCHEM_CACTVS_TAUTO_COUNT>  (1) 
1

>  <PUBCHEM_CONFORMER_ID>  (1) 
000024D500000004

>  <PUBCHEM_MMFF94_ENERGY>  (1) 
80.7156

>  <PUBCHEM_FEATURE_SELFOVERLAP>  (1) 
45.723

>  <PUBCHEM_SHAPE_FINGERPRINT>  (1) 
10369192 42 17459207320302995676
10674148 151 18412826915934472528
11578080 2 16880513352256213867
11621639 179 12678087518541534011
12035759 4 18271810086188187310
12422481 6 17897700138362333856
12644460 14 18337398149529313739
12788726 201 17561086847777787633
13782708 43 12469173780739899112
140371 6 17333367896671729153
14400156 188 17325764177314700771
14790565 3 18413665816349530874
14955137 171 18122909720186909754
15183329 4 18131349717539009628
15297060 5 18201712986313944594
15664445 248 17983864380612027006
17913733 40 18336560381576724211
1813 80 17975406919532147410
20511986 3 18059561517135494508
21033650 10 15554450674409660963
22393880 68 18201144563717158220
25147074 1 18201425987898397735
3411729 13 18333735684512281124
38570 142 18272101499418637938
38695281 34 18411417315218642998
437795 51 18187663374566925714
5104073 3 18189063006310000177
5283173 99 18057882635931494284
5385378 56 18409455751898492632
7226269 152 18059859510403827984
79837 15 18117278275106351906

>  <PUBCHEM_SHAPE_MULTIPOLES>  (1) 
593.42
13.78
4.02
1.74
0.93
3.05
0.32
-11.48
1.92
-3.59
0.34
1.18
0.49
-1.66

>  <PUBCHEM_SHAPE_SELFOVERLAP>  (1) 
1226.18

>  <PUBCHEM_SHAPE_VOLUME>  (1) 
341.5

>  <PUBCHEM_COORDINATE_TYPE>  (1) 
2
5
10

$$$$
