9438
     RDKit          3D

 15 16  0  0  0  0  0  0  0  0999 V2000
    4.9810    0.8541    0.0066 F   0  0  0  0  0  0  0  0  0  0  0  0
    3.1655   -1.0612   -0.0019 O   0  0  0  0  0  0  0  0  0  0  0  0
    1.4042    0.5037   -0.0016 N   0  0  0  0  0  0  0  0  0  0  0  0
   -1.0345    0.2639   -0.0004 C   0  0  0  0  0  0  0  0  0  0  0  0
   -2.1603   -0.5936    0.0008 C   0  0  0  0  0  0  0  0  0  0  0  0
    0.2541   -0.2947   -0.0010 C   0  0  0  0  0  0  0  0  0  0  0  0
   -1.2305    1.6545   -0.0009 C   0  0  0  0  0  0  0  0  0  0  0  0
   -1.9645   -1.9844    0.0010 C   0  0  0  0  0  0  0  0  0  0  0  0
    0.4302   -1.6789   -0.0003 C   0  0  0  0  0  0  0  0  0  0  0  0
   -3.4489   -0.0353    0.0012 C   0  0  0  0  0  0  0  0  0  0  0  0
   -0.6771   -2.5221    0.0004 C   0  0  0  0  0  0  0  0  0  0  0  0
   -2.5179    2.1920   -0.0002 C   0  0  0  0  0  0  0  0  0  0  0  0
   -3.6251    1.3487    0.0009 C   0  0  0  0  0  0  0  0  0  0  0  0
    2.7396    0.0890   -0.0020 C   0  0  0  0  0  0  0  0  0  0  0  0
    3.6843    1.2643   -0.0025 C   0  0  0  0  0  0  0  0  0  0  0  0
  1 15  1  0
  2 14  2  0
  3  6  1  0
  3 14  1  0
  4  5  1  0
  4  6  2  0
  4  7  1  0
  5  8  2  0
  5 10  1  0
  6  9  1  0
  7 12  2  0
  8 11  1  0
  9 11  2  0
 10 13  2  0
 12 13  1  0
 14 15  1  0
M  END
>  <PUBCHEM_COMPOUND_CID>  (1) 
9438

>  <PUBCHEM_CONFORMER_RMSD>  (1) 
0.6

>  <PUBCHEM_CONFORMER_DIVERSEORDER>  (1) 
1
3
4
2

>  <PUBCHEM_MMFF94_PARTIAL_CHARGES>  (1) 
21
1 -0.34
10 -0.15
11 -0.15
12 -0.15
13 -0.15
14 0.57
15 0.4
16 0.15
17 0.15
18 0.15
19 0.15
2 -0.57
20 0.15
21 0.37
22 0.15
23 0.15
3 -0.55
6 0.12
7 -0.15
8 -0.15
9 -0.15

>  <PUBCHEM_EFFECTIVE_ROTOR_COUNT>  (1) 
3

>  <PUBCHEM_PHARMACOPHORE_FEATURES>  (1) 
4
1 2 acceptor
1 3 donor
6 4 5 6 8 9 11 rings
6 4 5 7 10 12 13 rings

>  <PUBCHEM_HEAVY_ATOM_COUNT>  (1) 
15

>  <PUBCHEM_ATOM_DEF_STEREO_COUNT>  (1) 
0

>  <PUBCHEM_ATOM_UDEF_STEREO_COUNT>  (1) 
0

>  <PUBCHEM_BOND_DEF_STEREO_COUNT>  (1) 
0

>  <PUBCHEM_BOND_UDEF_STEREO_COUNT>  (1) 
0

>  <PUBCHEM_ISOTOPIC_ATOM_COUNT>  (1) 
0

>  <PUBCHEM_COMPONENT_COUNT>  (1) 
1

>  <PUBCHEM_CACTVS_TAUTO_COUNT>  (1) 
2

>  <PUBCHEM_CONFORMER_ID>  (1) 
000024DE00000001

>  <PUBCHEM_MMFF94_ENERGY>  (1) 
47.1797

>  <PUBCHEM_FEATURE_SELFOVERLAP>  (1) 
20.324

>  <PUBCHEM_SHAPE_FINGERPRINT>  (1) 
10411042 1 17689999354843692491
10608611 8 18342173418796859112
10967382 1 18410855417199607333
11132069 177 18408321085852836700
12173636 292 18410853252530965236
12346645 44 18409729517456308105
12390115 104 18200051550554820721
12500047 106 18412821413099911728
13140716 1 18122073267126893051
13380535 76 18338796702550073351
13583140 156 16805598175053741569
14325111 11 18410856529701729476
14614273 12 18188485770867902261
14648413 74 17544758933012636209
14897335 6 18410290285445082174
15042514 8 18265057023141399051
15196674 1 18410856533896385543
15442244 35 18336824183227358258
15536298 74 18341331089842429038
15669948 3 18339634641889638794
15775835 57 18408324367365885648
16945 1 18410575085143250247
18186145 218 18201166442533803724
193761 8 17690280838894647013
20510252 161 18342461451961556857
20645477 56 18410858776191359776
20645477 70 16916800548157277982
20871998 184 18271532017089212407
21501502 16 18339634538731425859
21524375 3 18340482262248980787
2334 1 18266740177990286821
23402539 116 18270111439697633527
23463225 33 18262234396245450834
23557571 272 18199479924904072390
23559900 14 18272652334208067214
2748010 2 18193286195743023919
3071541 12 17908427948401848231
43471831 8 18334292029080951163
474229 33 18410294731316612179
5104073 3 18409730629699916314
6333449 129 18411980290804458037
633830 44 18129101113096453741
69090 78 18412541007174529375
7364860 26 17909267979628032719
9709674 26 18342181081002963982

>  <PUBCHEM_SHAPE_MULTIPOLES>  (1) 
290.57
6.85
2.44
0.6
7.2
0.69
0
-3.46
-0.01
-1.19
0
-0.07
0
0

>  <PUBCHEM_SHAPE_SELFOVERLAP>  (1) 
629.874

>  <PUBCHEM_SHAPE_VOLUME>  (1) 
158.7

>  <PUBCHEM_COORDINATE_TYPE>  (1) 
2
5
10

$$$$
