9439
     RDKit          3D

 17 18  0  0  1  0  0  0  0  0999 V2000
    4.5840   -1.9899    0.6818 F   0  0  0  0  0  0  0  0  0  0  0  0
    1.9722    0.3387   -0.2674 N   0  0  0  0  0  0  0  0  0  0  0  0
    1.1281    0.2112    0.9188 C   0  0  0  0  0  0  0  0  0  0  0  0
   -0.2848    0.6323    0.6548 C   0  0  0  0  0  0  0  0  0  0  0  0
    3.3265   -0.1370    0.0144 C   0  0  0  0  0  0  0  0  0  0  0  0
    2.0039    1.7271   -0.7266 C   0  0  0  0  0  0  0  0  0  0  0  0
   -1.2608   -0.2738    0.2088 C   0  0  0  0  0  0  0  0  0  0  0  0
   -2.5787    0.1871   -0.0224 C   0  0  0  0  0  0  0  0  0  0  0  0
   -0.6034    1.9736    0.8694 C   0  0  0  0  0  0  0  0  0  0  0  0
    3.3098   -1.6025    0.4035 C   0  0  0  0  0  0  0  0  0  0  0  0
    2.8736    1.8849   -1.9568 C   0  0  0  0  0  0  0  0  0  0  0  0
   -0.9578   -1.6272   -0.0127 C   0  0  0  0  0  0  0  0  0  0  0  0
   -2.8819    1.5404    0.1994 C   0  0  0  0  0  0  0  0  0  0  0  0
   -1.8996    2.4267    0.6424 C   0  0  0  0  0  0  0  0  0  0  0  0
   -3.5548   -0.7187   -0.4682 C   0  0  0  0  0  0  0  0  0  0  0  0
   -1.9401   -2.5132   -0.4559 C   0  0  0  0  0  0  0  0  0  0  0  0
   -3.2362   -2.0598   -0.6834 C   0  0  0  0  0  0  0  0  0  0  0  0
  1 10  1  0
  2  3  1  0
  2  5  1  0
  2  6  1  0
  3  4  1  0
  4  7  2  0
  4  9  1  0
  5 10  1  0
  6 11  1  0
  7  8  1  0
  7 12  1  0
  8 13  2  0
  8 15  1  0
  9 14  2  0
 12 16  2  0
 13 14  1  0
 15 17  2  0
 16 17  1  0
M  END
>  <PUBCHEM_COMPOUND_CID>  (1) 
9439

>  <PUBCHEM_CONFORMER_RMSD>  (1) 
0.6

>  <PUBCHEM_CONFORMER_DIVERSEORDER>  (1) 
3
13
48
53
6
55
44
35
5
23
46
11
19
52
37
8
22
15
21
50
17
51
49
14
28
18
24
57
9
7
20
40
26
27
38
36
45
29
42
41
10
39
30
1
47
56
31
16
43
12
4
34
2
54
25
33
32

>  <PUBCHEM_MMFF94_PARTIAL_CHARGES>  (1) 
21
1 -0.34
10 0.34
12 -0.15
13 -0.15
14 -0.15
15 -0.15
16 -0.15
17 -0.15
2 -0.81
24 0.15
3 0.41
30 0.15
31 0.15
32 0.15
33 0.15
34 0.15
35 0.15
4 -0.14
5 0.27
6 0.27
9 -0.15

>  <PUBCHEM_EFFECTIVE_ROTOR_COUNT>  (1) 
5

>  <PUBCHEM_PHARMACOPHORE_FEATURES>  (1) 
3
1 2 cation
6 4 7 8 9 13 14 rings
6 7 8 12 15 16 17 rings

>  <PUBCHEM_HEAVY_ATOM_COUNT>  (1) 
17

>  <PUBCHEM_ATOM_DEF_STEREO_COUNT>  (1) 
0

>  <PUBCHEM_ATOM_UDEF_STEREO_COUNT>  (1) 
0

>  <PUBCHEM_BOND_DEF_STEREO_COUNT>  (1) 
0

>  <PUBCHEM_BOND_UDEF_STEREO_COUNT>  (1) 
0

>  <PUBCHEM_ISOTOPIC_ATOM_COUNT>  (1) 
0

>  <PUBCHEM_COMPONENT_COUNT>  (1) 
1

>  <PUBCHEM_CACTVS_TAUTO_COUNT>  (1) 
1

>  <PUBCHEM_CONFORMER_ID>  (1) 
000024DF00000003

>  <PUBCHEM_MMFF94_ENERGY>  (1) 
48.7776

>  <PUBCHEM_FEATURE_SELFOVERLAP>  (1) 
15.249

>  <PUBCHEM_SHAPE_FINGERPRINT>  (1) 
10062212 137 18340199709346398139
10616163 171 18342741818916378414
10756046 5 18334296491456597468
10759866 29 18263088875889033118
11578080 2 17972001891193502892
12202030 40 16486154862696537676
12553582 1 17982735469658490855
13140716 1 18342740732326205819
14115302 16 18341049627254826065
14790565 3 18342470205817894105
15099037 8 18409165519636413562
15342816 4 17914615209516053767
15442244 35 18409165472571082314
16752209 62 18341319021036821539
16945 1 18195806499626775361
17492 89 18410294718147568738
18186145 218 16732698376240654993
20600515 1 17702665432901599072
20645476 183 18335435538226574069
21501502 16 18411425032921277069
21634736 98 18335987557794227534
23184049 29 18271802458167981744
232386 152 18201997716374217684
23402539 116 18130211667538620325
23463225 33 18412262847907478318
23557571 272 17989211477413920808
23559900 14 18130213879673507936
23598291 2 18260272923594406372
2748010 2 16608001964071562563
3082319 5 18262523705284668580
312423 11 18334871531563537258
53777708 50 18336836376243781652
58051976 100 18334299725550932511
603831 33 18266748054918246460
6992083 37 18191594047094883296
7364860 26 17193756811061114433
7615 1 18335990826180158140
81228 2 18340482378503326721
90525 40 18339932527851764151
9709674 26 18059011683843636766
9939556 21 18335144189220360996
9981440 41 17756429627475887288

>  <PUBCHEM_SHAPE_MULTIPOLES>  (1) 
337.6
6.73
2.92
1.11
4.11
0.2
0.37
2.9
0.99
-0.43
0.04
0.76
-0.44
-1.92

>  <PUBCHEM_SHAPE_SELFOVERLAP>  (1) 
712.698

>  <PUBCHEM_SHAPE_VOLUME>  (1) 
191.8

>  <PUBCHEM_COORDINATE_TYPE>  (1) 
2
5
10

$$$$
