9440
     RDKit          3D

 16 17  0  0  1  0  0  0  0  0999 V2000
    4.9372    1.4010   -0.4781 F   0  0  0  0  0  0  0  0  0  0  0  0
    2.0652   -0.5494    0.5932 N   0  0  0  0  0  0  0  0  0  0  0  0
    1.3249   -0.5211   -0.6400 C   0  0  0  0  0  0  0  0  0  0  0  0
   -0.1314   -0.8004   -0.4299 C   0  0  0  0  0  0  0  0  0  0  0  0
   -1.0574    0.2250   -0.1773 C   0  0  0  0  0  0  0  0  0  0  0  0
    3.4810   -0.2151    0.3752 C   0  0  0  0  0  0  0  0  0  0  0  0
   -2.4204   -0.1051    0.0124 C   0  0  0  0  0  0  0  0  0  0  0  0
   -0.5433   -2.1319   -0.4943 C   0  0  0  0  0  0  0  0  0  0  0  0
    1.9658   -1.8635    1.2467 C   0  0  0  0  0  0  0  0  0  0  0  0
   -0.6606    1.5704   -0.1089 C   0  0  0  0  0  0  0  0  0  0  0  0
   -2.8175   -1.4505   -0.0563 C   0  0  0  0  0  0  0  0  0  0  0  0
   -1.8839   -2.4563   -0.3081 C   0  0  0  0  0  0  0  0  0  0  0  0
   -3.3465    0.9200    0.2649 C   0  0  0  0  0  0  0  0  0  0  0  0
    3.6158    1.1494   -0.2722 C   0  0  0  0  0  0  0  0  0  0  0  0
   -1.5942    2.5760    0.1431 C   0  0  0  0  0  0  0  0  0  0  0  0
   -2.9347    2.2515    0.3297 C   0  0  0  0  0  0  0  0  0  0  0  0
  1 14  1  0
  2  3  1  0
  2  6  1  0
  2  9  1  0
  3  4  1  0
  4  5  2  0
  4  8  1  0
  5  7  1  0
  5 10  1  0
  6 14  1  0
  7 11  2  0
  7 13  1  0
  8 12  2  0
 10 15  2  0
 11 12  1  0
 13 16  2  0
 15 16  1  0
M  END
>  <PUBCHEM_COMPOUND_CID>  (1) 
9440

>  <PUBCHEM_CONFORMER_RMSD>  (1) 
0.6

>  <PUBCHEM_CONFORMER_DIVERSEORDER>  (1) 
1
10
36
16
7
27
9
35
14
18
28
11
26
24
31
21
19
30
17
29
22
12
5
32
8
33
2
34
13
25
20
37
4
23
15
3
6

>  <PUBCHEM_MMFF94_PARTIAL_CHARGES>  (1) 
21
1 -0.34
10 -0.15
11 -0.15
12 -0.15
13 -0.15
14 0.34
15 -0.15
16 -0.15
2 -0.81
21 0.15
25 0.15
26 0.15
27 0.15
28 0.15
3 0.41
31 0.15
32 0.15
4 -0.14
6 0.27
8 -0.15
9 0.27

>  <PUBCHEM_EFFECTIVE_ROTOR_COUNT>  (1) 
4

>  <PUBCHEM_PHARMACOPHORE_FEATURES>  (1) 
3
1 2 cation
6 4 5 7 8 11 12 rings
6 5 7 10 13 15 16 rings

>  <PUBCHEM_HEAVY_ATOM_COUNT>  (1) 
16

>  <PUBCHEM_ATOM_DEF_STEREO_COUNT>  (1) 
0

>  <PUBCHEM_ATOM_UDEF_STEREO_COUNT>  (1) 
0

>  <PUBCHEM_BOND_DEF_STEREO_COUNT>  (1) 
0

>  <PUBCHEM_BOND_UDEF_STEREO_COUNT>  (1) 
0

>  <PUBCHEM_ISOTOPIC_ATOM_COUNT>  (1) 
0

>  <PUBCHEM_COMPONENT_COUNT>  (1) 
1

>  <PUBCHEM_CACTVS_TAUTO_COUNT>  (1) 
1

>  <PUBCHEM_CONFORMER_ID>  (1) 
000024E000000001

>  <PUBCHEM_MMFF94_ENERGY>  (1) 
49.9522

>  <PUBCHEM_FEATURE_SELFOVERLAP>  (1) 
15.249

>  <PUBCHEM_SHAPE_FINGERPRINT>  (1) 
10493431 412 18271538502769547281
10498660 4 18411417315071008452
10967382 1 18340205172539309437
12173636 292 18341605993112897676
12251169 10 18118677721453480666
12346645 44 18334856134606934474
12390115 104 18058189257614760209
12403260 363 17979058402316920405
13027679 85 18194679495997506261
13140716 1 18051142685376487035
13538477 17 18335693932107175042
13583140 156 17241327941555930017
14787075 74 17608657437328230666
15442244 35 18265045834993919738
15669948 3 18341603832660107502
15775835 57 18409732824612852624
16945 1 18123472679141176719
17834072 32 18267306434763246573
201361 129 18260828155686977058
20510252 161 18343869909282480555
20671657 1 18121224182036224126
20871998 184 18272653467536439503
21041028 32 17904497546778473307
21501502 16 18339916022192485178
21524375 3 18056748837220773423
23236772 104 18187643630359270187
23388829 49 18262799691192785839
23402539 116 18272640282255931303
23557571 272 18129393742456276644
23559900 14 18057891247530853318
23598294 1 18411411830260621587
2748010 2 17762351219213732741
44154327 71 18338799987941630977
6333272 397 18196089941582430393
7097593 13 17972862688702114650
7364860 26 17263279528206730159

>  <PUBCHEM_SHAPE_MULTIPOLES>  (1) 
317.02
6.52
2.87
0.82
6.8
0.06
0.11
3.1
0.22
-1.53
0.02
0.32
-0.21
-0.89

>  <PUBCHEM_SHAPE_SELFOVERLAP>  (1) 
673.943

>  <PUBCHEM_SHAPE_VOLUME>  (1) 
179.6

>  <PUBCHEM_COORDINATE_TYPE>  (1) 
2
5
10

$$$$
