9442
     RDKit          3D

 11 11  0  0  1  0  0  0  0  0999 V2000
    1.4911   -0.5091    2.0268 Cl  0  0  0  0  0  0  0  0  0  0  0  0
    3.1694    0.8358   -0.5164 Cl  0  0  0  0  0  0  0  0  0  0  0  0
   -0.4495   -2.2980   -1.3972 Cl  0  0  0  0  0  0  0  0  0  0  0  0
   -2.9053   -0.6966    0.4520 Cl  0  0  0  0  0  0  0  0  0  0  0  0
   -2.0367    2.3595   -0.0705 Cl  0  0  0  0  0  0  0  0  0  0  0  0
    1.1867   -0.9067    0.2939 C   0  0  0  0  0  0  0  0  0  0  0  0
    1.4648    0.2997   -0.6191 C   0  0  0  0  0  0  0  0  0  0  0  0
   -0.2744   -1.3750    0.1401 C   0  0  0  0  0  0  0  0  0  0  0  0
    0.5202    1.4771   -0.3402 C   0  0  0  0  0  0  0  0  0  0  0  0
   -1.2641   -0.2330    0.1180 C   0  0  0  0  0  0  0  0  0  0  0  0
   -0.9023    1.0465   -0.0874 C   0  0  0  0  0  0  0  0  0  0  0  0
  1  6  1  0
  2  7  1  0
  3  8  1  0
  4 10  1  0
  5 11  1  0
  6  7  1  0
  6  8  1  0
  7  9  1  0
  8 10  1  0
  9 11  1  0
 10 11  2  0
M  END
>  <PUBCHEM_COMPOUND_CID>  (1) 
9442

>  <PUBCHEM_CONFORMER_RMSD>  (1) 
0.4

>  <PUBCHEM_CONFORMER_DIVERSEORDER>  (1) 
1
9
3
4
8
11
7
12
10
13
5
6
2

>  <PUBCHEM_MMFF94_PARTIAL_CHARGES>  (1) 
9
1 -0.29
2 -0.29
3 -0.29
4 -0.14
5 -0.14
6 0.29
7 0.29
8 0.43
9 0.14

>  <PUBCHEM_EFFECTIVE_ROTOR_COUNT>  (1) 
0.8

>  <PUBCHEM_PHARMACOPHORE_FEATURES>  (1) 
1
6 6 7 8 9 10 11 rings

>  <PUBCHEM_HEAVY_ATOM_COUNT>  (1) 
11

>  <PUBCHEM_ATOM_DEF_STEREO_COUNT>  (1) 
0

>  <PUBCHEM_ATOM_UDEF_STEREO_COUNT>  (1) 
3

>  <PUBCHEM_BOND_DEF_STEREO_COUNT>  (1) 
0

>  <PUBCHEM_BOND_UDEF_STEREO_COUNT>  (1) 
0

>  <PUBCHEM_ISOTOPIC_ATOM_COUNT>  (1) 
0

>  <PUBCHEM_COMPONENT_COUNT>  (1) 
1

>  <PUBCHEM_CACTVS_TAUTO_COUNT>  (1) 
1

>  <PUBCHEM_CONFORMER_ID>  (1) 
000024E200000001

>  <PUBCHEM_MMFF94_ENERGY>  (1) 
13.5405

>  <PUBCHEM_FEATURE_SELFOVERLAP>  (1) 
5.074

>  <PUBCHEM_SHAPE_FINGERPRINT>  (1) 
12423570 1 8535999505151507531
13024252 1 17097220660583106508
13380535 76 18193556666755137277
14648413 74 17978242560014322261
14817 1 11656835232066655106
14993402 34 18270683211397797191
15557651 10 17346885532866767689
16945 1 18116738354603391492
18185500 45 18049718813064795647
20511035 2 17981023233542830211
20871998 184 18341906232764619471
21040471 1 18050001091332350313
22112679 90 18052237777024382122
23595355 12 17689996735023755797
241688 4 16177355561493455561
2748010 2 18339369539127605877
5084963 1 18202287970000512739
528862 383 17385712625849561362
528886 8 18270409415389990879
535629 181 17977105983008842046
53812653 8 18408042930869852700
53812654 25 18196350718927229227
68250623 7 18115599131861237522

>  <PUBCHEM_SHAPE_MULTIPOLES>  (1) 
235.72
3.57
2.34
1.31
0.44
0.19
0.52
1.04
0.15
-1.14
-0.75
0.59
-0.58
-0.34

>  <PUBCHEM_SHAPE_SELFOVERLAP>  (1) 
427.195

>  <PUBCHEM_SHAPE_VOLUME>  (1) 
148.2

>  <PUBCHEM_COORDINATE_TYPE>  (1) 
2
5
10

$$$$
