9443
     RDKit          3D

 12 12  0  0  0  0  0  0  0  0999 V2000
    0.6388   -2.4948    0.0017 Cl  0  0  0  0  0  0  0  0  0  0  0  0
   -4.0849    0.0842   -0.0004 Cl  0  0  0  0  0  0  0  0  0  0  0  0
    2.3841    1.5929   -0.0022 F   0  0  0  0  0  0  0  0  0  0  0  0
    2.4969   -0.2813    1.0833 F   0  0  0  0  0  0  0  0  0  0  0  0
    2.4728   -0.2873   -1.0910 F   0  0  0  0  0  0  0  0  0  0  0  0
    0.4237    0.2218    0.0022 C   0  0  0  0  0  0  0  0  0  0  0  0
   -0.2366   -1.0069    0.0023 C   0  0  0  0  0  0  0  0  0  0  0  0
   -0.3104    1.4079    0.0013 C   0  0  0  0  0  0  0  0  0  0  0  0
    1.9158    0.3112    0.0003 C   0  0  0  0  0  0  0  0  0  0  0  0
   -1.6307   -1.0496    0.0015 C   0  0  0  0  0  0  0  0  0  0  0  0
   -1.7047    1.3653    0.0005 C   0  0  0  0  0  0  0  0  0  0  0  0
   -2.3648    0.1365    0.0006 C   0  0  0  0  0  0  0  0  0  0  0  0
  1  7  1  0
  2 12  1  0
  3  9  1  0
  4  9  1  0
  5  9  1  0
  6  7  2  0
  6  8  1  0
  6  9  1  0
  7 10  1  0
  8 11  2  0
 10 12  2  0
 11 12  1  0
M  END
>  <PUBCHEM_COMPOUND_CID>  (1) 
9443

>  <PUBCHEM_CONFORMER_RMSD>  (1) 
0.4

>  <PUBCHEM_CONFORMER_DIVERSEORDER>  (1) 
1

>  <PUBCHEM_MMFF94_PARTIAL_CHARGES>  (1) 
15
1 -0.18
10 -0.15
11 -0.15
12 0.18
13 0.15
14 0.15
15 0.15
2 -0.18
3 -0.34
4 -0.34
5 -0.34
6 -0.14
7 0.18
8 -0.15
9 1.16

>  <PUBCHEM_EFFECTIVE_ROTOR_COUNT>  (1) 
1

>  <PUBCHEM_PHARMACOPHORE_FEATURES>  (1) 
1
6 6 7 8 10 11 12 rings

>  <PUBCHEM_HEAVY_ATOM_COUNT>  (1) 
12

>  <PUBCHEM_ATOM_DEF_STEREO_COUNT>  (1) 
0

>  <PUBCHEM_ATOM_UDEF_STEREO_COUNT>  (1) 
0

>  <PUBCHEM_BOND_DEF_STEREO_COUNT>  (1) 
0

>  <PUBCHEM_BOND_UDEF_STEREO_COUNT>  (1) 
0

>  <PUBCHEM_ISOTOPIC_ATOM_COUNT>  (1) 
0

>  <PUBCHEM_COMPONENT_COUNT>  (1) 
1

>  <PUBCHEM_CACTVS_TAUTO_COUNT>  (1) 
1

>  <PUBCHEM_CONFORMER_ID>  (1) 
000024E300000001

>  <PUBCHEM_MMFF94_ENERGY>  (1) 
19.5044

>  <PUBCHEM_FEATURE_SELFOVERLAP>  (1) 
5.074

>  <PUBCHEM_SHAPE_FINGERPRINT>  (1) 
10219947 1 18335422383068819841
12032990 46 18411428323404341367
12524768 44 18340772657761924092
12897270 3 18410295791798851573
13380535 76 18408600362254834251
14325111 11 18410855486309604097
15775835 57 18260547861319792352
161256 15 18268153045915699663
16945 1 18410575059209766755
193761 8 17906170646819303393
20645476 183 17677344938080054718
20645477 70 18267579114517074567
21040471 1 18410575063267415682
21501502 16 18122348969540950473
23235685 24 18409163324976690525
2334 1 17978510059568293833
23402539 116 18271232924103555260
23402655 69 18267567037317062333
23463225 33 18334288734587327235
23552423 10 18118408332599201675
23559900 14 18270972327796378884
241688 4 17544760027733437690
2748010 2 18121782991614453981
369184 2 17749382685147733289
5084963 1 18131639954169440768
528886 8 18411415150470482907
581208 293 18342452643115553207
7364860 26 18199182889023828430

>  <PUBCHEM_SHAPE_MULTIPOLES>  (1) 
228.87
4.62
1.91
0.73
2.64
0.79
0
-0.64
0
-0.59
0
-0.3
0.04
0

>  <PUBCHEM_SHAPE_SELFOVERLAP>  (1) 
465.937

>  <PUBCHEM_SHAPE_VOLUME>  (1) 
136.2

>  <PUBCHEM_COORDINATE_TYPE>  (1) 
2
5
10

$$$$
