9454
     RDKit          3D

 24 25  0  0  0  0  0  0  0  0999 V2000
   -6.2576    0.0378    0.0434 Cl  0  0  0  0  0  0  0  0  0  0  0  0
    6.3534    1.2588   -1.1746 Cl  0  0  0  0  0  0  0  0  0  0  0  0
    0.4415   -3.4408   -1.4982 Cl  0  0  0  0  0  0  0  0  0  0  0  0
    2.6050   -0.2460    0.8990 P   0  0  0  0  0  0  0  0  0  0  0  0
    1.8079    0.8647    0.0289 O   0  0  0  0  0  0  0  0  0  0  0  0
   -2.5064   -0.9047    1.0088 O   0  0  0  0  0  0  0  0  0  0  0  0
    4.1655    0.0408    0.5678 O   0  0  0  0  0  0  0  0  0  0  0  0
    2.2885   -1.6372    0.1275 O   0  0  0  0  0  0  0  0  0  0  0  0
    2.2541   -0.2761    2.3599 O   0  0  0  0  0  0  0  0  0  0  0  0
   -4.5370   -1.7945    1.5122 O   0  0  0  0  0  0  0  0  0  0  0  0
   -2.3502    1.0644   -0.4204 C   0  0  0  0  0  0  0  0  0  0  0  0
   -1.7428    0.0734    0.3486 C   0  0  0  0  0  0  0  0  0  0  0  0
   -3.8231    1.0778   -0.5376 C   0  0  0  0  0  0  0  0  0  0  0  0
    0.4572    0.9273   -0.1159 C   0  0  0  0  0  0  0  0  0  0  0  0
   -0.3575   -0.0090    0.5099 C   0  0  0  0  0  0  0  0  0  0  0  0
   -1.5079    1.9989   -1.0423 C   0  0  0  0  0  0  0  0  0  0  0  0
   -0.1176    1.9309   -0.8913 C   0  0  0  0  0  0  0  0  0  0  0  0
   -4.5258    0.1272    0.1066 C   0  0  0  0  0  0  0  0  0  0  0  0
   -4.4397    2.1664   -1.3807 C   0  0  0  0  0  0  0  0  0  0  0  0
   -3.8898   -0.9320    0.9274 C   0  0  0  0  0  0  0  0  0  0  0  0
    4.7366    1.2586    1.0133 C   0  0  0  0  0  0  0  0  0  0  0  0
    2.5671   -1.7601   -1.2567 C   0  0  0  0  0  0  0  0  0  0  0  0
    6.1952    1.3218    0.5993 C   0  0  0  0  0  0  0  0  0  0  0  0
    2.1834   -3.1483   -1.7349 C   0  0  0  0  0  0  0  0  0  0  0  0
  1 18  1  0
  2 23  1  0
  3 24  1  0
  4  5  1  0
  4  7  1  0
  4  8  1  0
  4  9  2  0
  5 14  1  0
  6 12  1  0
  6 20  1  0
  7 21  1  0
  8 22  1  0
 10 20  2  0
 11 12  2  0
 11 13  1  0
 11 16  1  0
 12 15  1  0
 13 18  2  0
 13 19  1  0
 14 15  2  0
 14 17  1  0
 16 17  2  0
 18 20  1  0
 21 23  1  0
 22 24  1  0
M  END
>  <PUBCHEM_COMPOUND_CID>  (1) 
9454

>  <PUBCHEM_CONFORMER_RMSD>  (1) 
0.8

>  <PUBCHEM_CONFORMER_DIVERSEORDER>  (1) 
1
261
108
96
158
77
25
270
161
33
120
147
181
102
15
82
93
29
269
98
5
159
41
105
23
30
293
68
285
272
152
63
155
19
38
220
56
168
58
201
73
279
302
74
52
299
28
26
127
87
176
217
44
94
49
203
172
42
131
122
101
180
126
32
121
142
185
75
135
153
154
80
134
4
150
88
8
83
188
91
106
65
115
137
20
59
283
78
224
149
298
95
22
34
244
40
175
51
246
167
179
48
90
79
57
163
171
86
192
24
124
204
110
301
35
182
257
6
151
169
275
280
251
164
66
209
37
69
46
276
262
273
243
50
226
259
64
196
178
253
113
103
125
70
31
247
76
227
148
215
53
165
187
114
162
107
119
186
287
72
43
92
254
156
278
249
118
9
256
112
207
184
290
296
173
281
229
61
141
233
255
202
144
7
85
237
264
54
267
228
145
55
212
67
13
239
198
138
139
211
136
27
288
303
213
84
100
252
282
225
97
231
143
274
268
2
265
234
128
194
104
230
300
111
260
183
166
245
195
205
240
241
36
289
99
45
235
3
242
174
248
129
258
140
116
16
160
170
18
292
206
197
219
117
294
216
222
221
210
17
193
133
21
177
132
39
10
123
291
297
284
191
130
271
146
295
14
62
190
47
208
214
218
11
60
109
200
232
236
71
81
12
266
223
157
89
250
263
277
189
238
286
199

>  <PUBCHEM_MMFF94_PARTIAL_CHARGES>  (1) 
27
1 -0.14
10 -0.57
11 0.03
12 0.08
13 -0.17
14 0.08
15 -0.15
16 -0.15
17 -0.15
18 0.15
19 0.14
2 -0.29
20 0.71
21 0.28
22 0.28
23 0.29
24 0.29
25 0.15
26 0.15
27 0.15
3 -0.29
4 1.51
5 -0.35
6 -0.23
7 -0.55
8 -0.55
9 -0.7

>  <PUBCHEM_EFFECTIVE_ROTOR_COUNT>  (1) 
8

>  <PUBCHEM_PHARMACOPHORE_FEATURES>  (1) 
4
1 10 acceptor
1 9 acceptor
6 11 12 14 15 16 17 rings
6 6 11 12 13 18 20 rings

>  <PUBCHEM_HEAVY_ATOM_COUNT>  (1) 
24

>  <PUBCHEM_ATOM_DEF_STEREO_COUNT>  (1) 
0

>  <PUBCHEM_ATOM_UDEF_STEREO_COUNT>  (1) 
0

>  <PUBCHEM_BOND_DEF_STEREO_COUNT>  (1) 
0

>  <PUBCHEM_BOND_UDEF_STEREO_COUNT>  (1) 
0

>  <PUBCHEM_ISOTOPIC_ATOM_COUNT>  (1) 
0

>  <PUBCHEM_COMPONENT_COUNT>  (1) 
1

>  <PUBCHEM_CACTVS_TAUTO_COUNT>  (1) 
1

>  <PUBCHEM_CONFORMER_ID>  (1) 
000024EE00000001

>  <PUBCHEM_MMFF94_ENERGY>  (1) 
54.2324

>  <PUBCHEM_FEATURE_SELFOVERLAP>  (1) 
20.324

>  <PUBCHEM_SHAPE_FINGERPRINT>  (1) 
10165383 225 18131633417814720504
10366900 7 17632568353535755841
10906281 52 18115042860397481505
11488393 25 18199479766513171254
11524674 6 17917428765556837838
12236239 1 16153419541328536793
13533116 47 17489021557828176083
13583140 156 16988838398214825435
13911882 115 18412833481784284434
14341114 328 17603580838067174712
14747281 78 17697894578797162749
14840074 17 18336825398365363468
15375358 24 18335976484978109297
15635459 17 18267872692226568831
15927050 60 17474676521483933820
17980427 23 17676489470883788484
20645477 70 18129376012515235175
21033648 29 18058711594120145153
21267235 1 17822014233293798513
21365058 27 17846226608966605286
22182313 1 18336832992163077935
22224240 67 18059849610429707882
23402539 116 17676479579605766592
23557571 272 18187932737482225269
23559900 14 18116720599493862158
335352 9 17895187840825077917
34797466 226 18411990186842242244
3729539 64 17987537926965631166
4325135 7 17676488363040857164
5104073 3 18115300077472862137
59755656 215 18409733958853451268
59755656 520 16988843912604583085
621550 34 18341609278947475900
6669772 16 17989210339907113950
67856867 119 17168432691324720196
9709674 26 18337107852726395063

>  <PUBCHEM_SHAPE_MULTIPOLES>  (1) 
468.15
13.33
2.93
1.6
4.28
2.9
-0.17
-5.31
-0.89
1.31
1.92
0.48
0.43
2.29

>  <PUBCHEM_SHAPE_SELFOVERLAP>  (1) 
930.435

>  <PUBCHEM_SHAPE_VOLUME>  (1) 
280.7

>  <PUBCHEM_COORDINATE_TYPE>  (1) 
2
5
10

$$$$
