9457
     RDKit          3D

 12 12  0  0  1  0  0  0  0  0999 V2000
    0.9101    1.3236    1.3668 O   0  0  0  0  0  0  0  0  0  0  0  0
    3.0896   -0.2921    0.3552 N   0  0  0  0  0  0  0  0  0  0  0  0
    1.7404   -0.3261   -0.2233 C   0  0  0  0  0  0  0  0  0  0  0  0
    0.6983   -0.0009    0.8704 C   0  0  0  0  0  0  0  0  0  0  0  0
   -0.7340   -0.0613    0.3846 C   0  0  0  0  0  0  0  0  0  0  0  0
    1.7005    0.6667   -1.3866 C   0  0  0  0  0  0  0  0  0  0  0  0
   -1.3209    1.0811   -0.1309 C   0  0  0  0  0  0  0  0  0  0  0  0
   -1.4249   -1.2577    0.4662 C   0  0  0  0  0  0  0  0  0  0  0  0
    4.0791   -0.6739   -0.6372 C   0  0  0  0  0  0  0  0  0  0  0  0
   -2.6407    1.0255   -0.5789 C   0  0  0  0  0  0  0  0  0  0  0  0
   -2.7447   -1.3133    0.0182 C   0  0  0  0  0  0  0  0  0  0  0  0
   -3.3526   -0.1717   -0.5044 C   0  0  0  0  0  0  0  0  0  0  0  0
  1  4  1  0
  2  3  1  0
  2  9  1  0
  3  4  1  0
  3  6  1  0
  4  5  1  0
  5  7  2  0
  5  8  1  0
  7 10  1  0
  8 11  2  0
 10 12  2  0
 11 12  1  0
M  END
>  <PUBCHEM_COMPOUND_CID>  (1) 
9457

>  <PUBCHEM_CONFORMER_RMSD>  (1) 
0.6

>  <PUBCHEM_CONFORMER_DIVERSEORDER>  (1) 
4
6
2
1
3
5

>  <PUBCHEM_MMFF94_PARTIAL_CHARGES>  (1) 
18
1 -0.68
10 -0.15
11 -0.15
12 -0.15
18 0.36
19 0.15
2 -0.9
20 0.15
21 0.4
25 0.15
26 0.15
27 0.15
3 0.27
4 0.42
5 -0.14
7 -0.15
8 -0.15
9 0.27

>  <PUBCHEM_EFFECTIVE_ROTOR_COUNT>  (1) 
3

>  <PUBCHEM_PHARMACOPHORE_FEATURES>  (1) 
5
1 1 acceptor
1 1 donor
1 2 cation
1 2 donor
6 5 7 8 10 11 12 rings

>  <PUBCHEM_HEAVY_ATOM_COUNT>  (1) 
12

>  <PUBCHEM_ATOM_DEF_STEREO_COUNT>  (1) 
2

>  <PUBCHEM_ATOM_UDEF_STEREO_COUNT>  (1) 
0

>  <PUBCHEM_BOND_DEF_STEREO_COUNT>  (1) 
0

>  <PUBCHEM_BOND_UDEF_STEREO_COUNT>  (1) 
0

>  <PUBCHEM_ISOTOPIC_ATOM_COUNT>  (1) 
0

>  <PUBCHEM_COMPONENT_COUNT>  (1) 
1

>  <PUBCHEM_CACTVS_TAUTO_COUNT>  (1) 
1

>  <PUBCHEM_CONFORMER_ID>  (1) 
000024F100000004

>  <PUBCHEM_MMFF94_ENERGY>  (1) 
30.2929

>  <PUBCHEM_FEATURE_SELFOVERLAP>  (1) 
25.374

>  <PUBCHEM_SHAPE_FINGERPRINT>  (1) 
10219947 1 16343698842125285024
10465860 250 18201429251830475226
12716758 59 18335134323738413595
12897270 3 18186803607860111783
12932764 1 18334568049369464035
13024252 1 16370731430921808651
13296908 3 17918273143173393530
14115302 16 18409454695336479335
14993402 34 17458340831957077927
15219456 202 18129089181566451128
15775835 57 16226045574340565015
16945 1 18261396611223787249
18186145 218 14706933921632611126
20201158 50 18060138725794788871
20361792 2 16917353631885322584
20645476 183 17458054976551861035
20653085 51 16732995257259723285
20711985 327 15913611674707466008
20711985 344 17272030674142841696
21061003 4 17275109431043494026
21119208 17 17967251987754017326
23402539 116 18337944606586642685
23403322 49 18130793291915275998
23552423 10 17894905252570992891
23559900 14 18341888551254797210
2748010 2 18120079843971670043
369184 2 11887959834957095047
5084963 1 18259698999899297305
528886 8 17458343035296295730
57812782 119 18343016692475139814
8030462 33 17895739769095904091
81228 2 17273157694999401168
9939556 21 17894917351208860254

>  <PUBCHEM_SHAPE_MULTIPOLES>  (1) 
236.1
5.91
1.3
1.07
3.03
0.02
-0.14
1.01
1.77
-0.68
0.03
0.47
-0.25
0.06

>  <PUBCHEM_SHAPE_SELFOVERLAP>  (1) 
477.301

>  <PUBCHEM_SHAPE_VOLUME>  (1) 
138.8

>  <PUBCHEM_COORDINATE_TYPE>  (1) 
2
5
10

$$$$
