9458
     RDKit          3D

 17 17  0  0  0  0  0  0  0  0999 V2000
    4.0532   -0.6663    0.3404 F   0  0  0  0  0  0  0  0  0  0  0  0
    3.6031    0.7763   -1.2153 F   0  0  0  0  0  0  0  0  0  0  0  0
    3.3398    1.3172    0.8744 F   0  0  0  0  0  0  0  0  0  0  0  0
   -1.5928    1.1202   -0.7770 O   0  0  0  0  0  0  0  0  0  0  0  0
   -2.4783   -2.5770    0.7363 O   0  0  0  0  0  0  0  0  0  0  0  0
   -3.1608   -1.1448   -0.8913 O   0  0  0  0  0  0  0  0  0  0  0  0
   -1.8219    1.6794    1.4846 O   0  0  0  0  0  0  0  0  0  0  0  0
    1.7440   -0.1809   -0.0542 C   0  0  0  0  0  0  0  0  0  0  0  0
   -0.6030    0.2475   -0.4354 C   0  0  0  0  0  0  0  0  0  0  0  0
   -0.8962   -1.0798   -0.1224 C   0  0  0  0  0  0  0  0  0  0  0  0
    0.7171    0.6969   -0.4012 C   0  0  0  0  0  0  0  0  0  0  0  0
    1.4509   -1.5083    0.2589 C   0  0  0  0  0  0  0  0  0  0  0  0
    0.1307   -1.9576    0.2249 C   0  0  0  0  0  0  0  0  0  0  0  0
    3.1552    0.2994   -0.0162 C   0  0  0  0  0  0  0  0  0  0  0  0
   -2.2671   -1.5699   -0.1537 C   0  0  0  0  0  0  0  0  0  0  0  0
   -2.1496    1.8083    0.3125 C   0  0  0  0  0  0  0  0  0  0  0  0
   -3.2243    2.7393   -0.1652 C   0  0  0  0  0  0  0  0  0  0  0  0
  1 14  1  0
  2 14  1  0
  3 14  1  0
  4  9  1  0
  4 16  1  0
  5 15  1  0
  6 15  2  0
  7 16  2  0
  8 11  2  0
  8 12  1  0
  8 14  1  0
  9 10  2  0
  9 11  1  0
 10 13  1  0
 10 15  1  0
 12 13  2  0
 16 17  1  0
M  END
>  <PUBCHEM_COMPOUND_CID>  (1) 
9458

>  <PUBCHEM_CONFORMER_RMSD>  (1) 
0.6

>  <PUBCHEM_CONFORMER_DIVERSEORDER>  (1) 
1
6
10
4
9
3
2
8
5
7

>  <PUBCHEM_MMFF94_PARTIAL_CHARGES>  (1) 
21
1 -0.34
10 0.09
11 -0.15
12 -0.15
13 -0.15
14 1.16
15 0.63
16 0.66
17 0.06
18 0.15
19 0.15
2 -0.34
20 0.15
24 0.5
3 -0.34
4 -0.23
5 -0.65
6 -0.57
7 -0.57
8 -0.14
9 0.08

>  <PUBCHEM_EFFECTIVE_ROTOR_COUNT>  (1) 
4

>  <PUBCHEM_PHARMACOPHORE_FEATURES>  (1) 
5
1 5 acceptor
1 6 acceptor
1 7 acceptor
3 5 6 15 anion
6 8 9 10 11 12 13 rings

>  <PUBCHEM_HEAVY_ATOM_COUNT>  (1) 
17

>  <PUBCHEM_ATOM_DEF_STEREO_COUNT>  (1) 
0

>  <PUBCHEM_ATOM_UDEF_STEREO_COUNT>  (1) 
0

>  <PUBCHEM_BOND_DEF_STEREO_COUNT>  (1) 
0

>  <PUBCHEM_BOND_UDEF_STEREO_COUNT>  (1) 
0

>  <PUBCHEM_ISOTOPIC_ATOM_COUNT>  (1) 
0

>  <PUBCHEM_COMPONENT_COUNT>  (1) 
1

>  <PUBCHEM_CACTVS_TAUTO_COUNT>  (1) 
1

>  <PUBCHEM_CONFORMER_ID>  (1) 
000024F200000001

>  <PUBCHEM_MMFF94_ENERGY>  (1) 
42.603

>  <PUBCHEM_FEATURE_SELFOVERLAP>  (1) 
25.429

>  <PUBCHEM_SHAPE_FINGERPRINT>  (1) 
10608611 8 18342451556515369952
108231 29 17902795502551933203
12491281 212 18336270059014752034
12532896 13 18265900151201748103
13140716 1 18264201409831640418
13380535 21 18339371746936104582
13380535 76 18268424638082971951
13764800 53 18272935998768935553
14614273 12 18260536801905560703
14897335 6 18267298738212935597
15775835 57 18265616485290796773
16752209 62 18411971477368341751
16945 1 18337955717535311174
1741750 31 18271525278026808649
18186145 218 18060425698841289288
20510252 161 18341331214090246448
20525323 117 18411133641002379407
20671657 1 18052258388672577882
21029758 11 18050278469311531615
21296965 67 18123752216971826071
21501502 16 18337104562507594262
21524375 3 18125718989680819469
22802520 49 17703243805981683764
2334 1 18409448068249732518
23402539 116 18270105945970348734
23419403 2 15958874471150966734
23558518 356 18260834846966286808
23559900 14 18339353176014396764
2748010 2 18338804416047651630
3312278 4 18189051048514502879
353137 74 18334284384139059503
5104073 3 18336255783308403906
6049 1 17846227691155834356
68521 5 18339081596547319255
7364860 26 17910109114618464790
81228 2 18337401525320633355
84936 182 17694773026457140377

>  <PUBCHEM_SHAPE_MULTIPOLES>  (1) 
304.55
5.91
2.69
0.92
3.72
0.25
-0.07
-2.23
0.09
-2.76
-0.4
-0.09
-0.2
-0.24

>  <PUBCHEM_SHAPE_SELFOVERLAP>  (1) 
647.169

>  <PUBCHEM_SHAPE_VOLUME>  (1) 
170.1

>  <PUBCHEM_COORDINATE_TYPE>  (1) 
2
5
10

$$$$
