9461
     RDKit          3D

 13 14  0  0  0  0  0  0  0  0999 V2000
    4.4793    0.0004    0.0000 F   0  0  0  0  0  0  0  0  0  0  0  0
    0.3502   -0.0002   -0.0001 C   0  0  0  0  0  0  0  0  0  0  0  0
   -1.0966   -0.0005    0.0001 C   0  0  0  0  0  0  0  0  0  0  0  0
    1.0475   -0.8253   -0.8823 C   0  0  0  0  0  0  0  0  0  0  0  0
    1.0473    0.8251    0.8822 C   0  0  0  0  0  0  0  0  0  0  0  0
   -1.7936    0.8822   -0.8250 C   0  0  0  0  0  0  0  0  0  0  0  0
   -1.7943   -0.8826    0.8250 C   0  0  0  0  0  0  0  0  0  0  0  0
    2.4424   -0.8252   -0.8821 C   0  0  0  0  0  0  0  0  0  0  0  0
    2.4422    0.8251    0.8823 C   0  0  0  0  0  0  0  0  0  0  0  0
   -3.1885    0.8826   -0.8251 C   0  0  0  0  0  0  0  0  0  0  0  0
   -3.1892   -0.8821    0.8249 C   0  0  0  0  0  0  0  0  0  0  0  0
    3.1397    0.0000    0.0002 C   0  0  0  0  0  0  0  0  0  0  0  0
   -3.8864    0.0004   -0.0001 C   0  0  0  0  0  0  0  0  0  0  0  0
  1 12  1  0
  2  3  1  0
  2  4  2  0
  2  5  1  0
  3  6  2  0
  3  7  1  0
  4  8  1  0
  5  9  2  0
  6 10  1  0
  7 11  2  0
  8 12  2  0
  9 12  1  0
 10 13  2  0
 11 13  1  0
M  END
>  <PUBCHEM_COMPOUND_CID>  (1) 
9461

>  <PUBCHEM_CONFORMER_RMSD>  (1) 
0.4

>  <PUBCHEM_CONFORMER_DIVERSEORDER>  (1) 
1
2

>  <PUBCHEM_MMFF94_PARTIAL_CHARGES>  (1) 
20
1 -0.19
10 -0.15
11 -0.15
12 0.19
13 -0.15
14 0.15
15 0.15
16 0.15
17 0.15
18 0.15
19 0.15
20 0.15
21 0.15
22 0.15
4 -0.15
5 -0.15
6 -0.15
7 -0.15
8 -0.15
9 -0.15

>  <PUBCHEM_EFFECTIVE_ROTOR_COUNT>  (1) 
1

>  <PUBCHEM_PHARMACOPHORE_FEATURES>  (1) 
2
6 2 4 5 8 9 12 rings
6 3 6 7 10 11 13 rings

>  <PUBCHEM_HEAVY_ATOM_COUNT>  (1) 
13

>  <PUBCHEM_ATOM_DEF_STEREO_COUNT>  (1) 
0

>  <PUBCHEM_ATOM_UDEF_STEREO_COUNT>  (1) 
0

>  <PUBCHEM_BOND_DEF_STEREO_COUNT>  (1) 
0

>  <PUBCHEM_BOND_UDEF_STEREO_COUNT>  (1) 
0

>  <PUBCHEM_ISOTOPIC_ATOM_COUNT>  (1) 
0

>  <PUBCHEM_COMPONENT_COUNT>  (1) 
1

>  <PUBCHEM_CACTVS_TAUTO_COUNT>  (1) 
1

>  <PUBCHEM_CONFORMER_ID>  (1) 
000024F500000001

>  <PUBCHEM_MMFF94_ENERGY>  (1) 
38.3279

>  <PUBCHEM_FEATURE_SELFOVERLAP>  (1) 
10.149

>  <PUBCHEM_SHAPE_FINGERPRINT>  (1) 
10219947 1 17704073992952752524
10465860 250 18334849498850781424
10608611 8 18410851066545910249
11471102 20 17847059982629158392
124424 183 18410004416927778922
12500047 106 18041272210221715475
12932764 1 18411693300973902651
13581323 91 17530961388791007459
14144814 61 15841554063304889863
14993402 34 15985100808027158837
15219456 202 18412825789275940933
15309172 13 17561085812716717767
15653759 3 18334011704885878712
16945 1 17632296774422072964
17844478 74 18341618113658377785
18175812 5 18410854399318797093
18186145 218 18340211786604212079
19026448 4 18187365432938146948
19026448 5 17022903454286169574
19049666 15 18195247719822620311
19422 9 15936412238505228587
200 152 17132108044405197517
20201158 50 18343303651898357443
20279233 1 18411420605026370135
20645464 45 18410293614503627019
20645477 70 17845371050864122055
21639500 275 17345739914797114232
23402539 116 18040707074351331007
23402655 69 17417810600143273369
23557571 272 18187367605822697829
23559900 14 18187643549403724758
474 4 15983671529274451530
57812782 119 18410009935749744575
69090 78 18343578573330214887
77492 1 15626224619536677637

>  <PUBCHEM_SHAPE_MULTIPOLES>  (1) 
260.26
6.93
1.07
1.07
1.01
0
0
0
0
-0.11
0
-0.19
0
0.98

>  <PUBCHEM_SHAPE_SELFOVERLAP>  (1) 
567.707

>  <PUBCHEM_SHAPE_VOLUME>  (1) 
142.6

>  <PUBCHEM_COORDINATE_TYPE>  (1) 
2
5
10

$$$$
