9464
     RDKit          3D

 15 16  0  0  0  0  0  0  0  0999 V2000
   -5.5396   -0.1706    0.0065 F   0  0  0  0  0  0  0  0  0  0  0  0
   -3.3059    1.2348   -0.0024 O   0  0  0  0  0  0  0  0  0  0  0  0
   -1.9831   -0.7162   -0.0010 N   0  0  0  0  0  0  0  0  0  0  0  0
    1.7218   -0.6452   -0.0001 C   0  0  0  0  0  0  0  0  0  0  0  0
    1.9567    0.7503    0.0004 C   0  0  0  0  0  0  0  0  0  0  0  0
   -0.6755   -0.2295   -0.0006 C   0  0  0  0  0  0  0  0  0  0  0  0
    0.3996   -1.1189   -0.0007 C   0  0  0  0  0  0  0  0  0  0  0  0
    0.8628    1.6311    0.0000 C   0  0  0  0  0  0  0  0  0  0  0  0
   -0.4443    1.1430   -0.0005 C   0  0  0  0  0  0  0  0  0  0  0  0
    2.8158   -1.5258   -0.0001 C   0  0  0  0  0  0  0  0  0  0  0  0
    3.2787    1.2242    0.0008 C   0  0  0  0  0  0  0  0  0  0  0  0
    4.1227   -1.0375    0.0006 C   0  0  0  0  0  0  0  0  0  0  0  0
    4.3538    0.3350    0.0011 C   0  0  0  0  0  0  0  0  0  0  0  0
   -3.1784    0.0149   -0.0019 C   0  0  0  0  0  0  0  0  0  0  0  0
   -4.3850   -0.8896   -0.0021 C   0  0  0  0  0  0  0  0  0  0  0  0
  1 15  1  0
  2 14  2  0
  3  6  1  0
  3 14  1  0
  4  5  2  0
  4  7  1  0
  4 10  1  0
  5  8  1  0
  5 11  1  0
  6  7  2  0
  6  9  1  0
  8  9  2  0
 10 12  2  0
 11 13  2  0
 12 13  1  0
 14 15  1  0
M  END
>  <PUBCHEM_COMPOUND_CID>  (1) 
9464

>  <PUBCHEM_CONFORMER_RMSD>  (1) 
0.6

>  <PUBCHEM_CONFORMER_DIVERSEORDER>  (1) 
1
4
5
6
2
3

>  <PUBCHEM_MMFF94_PARTIAL_CHARGES>  (1) 
21
1 -0.34
10 -0.15
11 -0.15
12 -0.15
13 -0.15
14 0.57
15 0.4
16 0.15
17 0.15
18 0.15
19 0.15
2 -0.57
20 0.15
21 0.37
22 0.15
23 0.15
3 -0.55
6 0.12
7 -0.15
8 -0.15
9 -0.15

>  <PUBCHEM_EFFECTIVE_ROTOR_COUNT>  (1) 
3

>  <PUBCHEM_PHARMACOPHORE_FEATURES>  (1) 
4
1 2 acceptor
1 3 donor
6 4 5 10 11 12 13 rings
6 4 5 6 7 8 9 rings

>  <PUBCHEM_HEAVY_ATOM_COUNT>  (1) 
15

>  <PUBCHEM_ATOM_DEF_STEREO_COUNT>  (1) 
0

>  <PUBCHEM_ATOM_UDEF_STEREO_COUNT>  (1) 
0

>  <PUBCHEM_BOND_DEF_STEREO_COUNT>  (1) 
0

>  <PUBCHEM_BOND_UDEF_STEREO_COUNT>  (1) 
0

>  <PUBCHEM_ISOTOPIC_ATOM_COUNT>  (1) 
0

>  <PUBCHEM_COMPONENT_COUNT>  (1) 
1

>  <PUBCHEM_CACTVS_TAUTO_COUNT>  (1) 
2

>  <PUBCHEM_CONFORMER_ID>  (1) 
000024F800000001

>  <PUBCHEM_MMFF94_ENERGY>  (1) 
41.9959

>  <PUBCHEM_FEATURE_SELFOVERLAP>  (1) 
20.324

>  <PUBCHEM_SHAPE_FINGERPRINT>  (1) 
11471102 20 18409728478279905300
11806522 49 18410292527370433933
12032990 46 18410858728851494694
12236239 1 17847063294164988147
13690532 89 18411136926520219131
13862211 1 18410288095302340258
14115302 16 17749400290181912310
14251717 144 18411136943848028222
14252887 29 18060146418466292350
15196674 1 18410573950791946629
15536298 74 18343019995473717408
16945 1 18410854378577118476
17834072 33 18342454880746067775
18186145 218 17894627032852321366
18522853 276 18342739619992953329
200 152 18201998815505998449
20279233 1 17967821556273199307
20645477 70 18411418375970316958
21267235 1 18411708668419739206
21501925 9 18411415103236353178
221490 88 18191311687386545363
23402539 116 18059850671677052749
23402655 69 18412538795904682117
23463225 33 18410293588665231988
23557571 272 17313098623146151717
2748010 2 18266734680717179684
2871803 45 18260263027631131475
33824 294 18408602552767263554
42 15 18410013238822227287
4214541 1 18410573946992929441
4990 188 18131360695675371630
5104073 3 18411419479612986233
522135 26 18409167714401644526
537710 114 18411705404497717412
69090 78 18412823616291936799
7364860 26 18268992149619118376
77779 3 18410576184528134575
8809292 202 18187369873750150323

>  <PUBCHEM_SHAPE_MULTIPOLES>  (1) 
290.57
9.25
1.56
0.6
8.5
0.16
0
-1.38
-0.01
-0.74
0
-0.08
0
0

>  <PUBCHEM_SHAPE_SELFOVERLAP>  (1) 
628.742

>  <PUBCHEM_SHAPE_VOLUME>  (1) 
159

>  <PUBCHEM_COORDINATE_TYPE>  (1) 
2
5
10

$$$$
