9465
     RDKit          3D

 13 13  0  0  1  0  0  0  0  0999 V2000
    1.3756    2.2918   -0.3125 F   0  0  0  0  0  0  0  0  0  0  0  0
   -1.7579   -1.4829   -1.1759 O   0  0  0  0  0  0  0  0  0  0  0  0
   -3.3459   -1.0322    0.3883 O   0  0  0  0  0  0  0  0  0  0  0  0
   -2.7780    1.6564    0.0300 N   0  0  0  0  0  0  0  0  0  0  0  0
   -0.6683    0.7570    0.8935 C   0  0  0  0  0  0  0  0  0  0  0  0
   -1.7158    0.6814   -0.2258 C   0  0  0  0  0  0  0  0  0  0  0  0
    0.6644    0.1718    0.4841 C   0  0  0  0  0  0  0  0  0  0  0  0
    1.6156    0.9901   -0.1020 C   0  0  0  0  0  0  0  0  0  0  0  0
    0.9058   -1.1739    0.7048 C   0  0  0  0  0  0  0  0  0  0  0  0
   -2.3762   -0.6823   -0.2697 C   0  0  0  0  0  0  0  0  0  0  0  0
    2.8437    0.4468   -0.4789 C   0  0  0  0  0  0  0  0  0  0  0  0
    2.1340   -1.7172    0.3280 C   0  0  0  0  0  0  0  0  0  0  0  0
    3.1029   -0.9069   -0.2640 C   0  0  0  0  0  0  0  0  0  0  0  0
  1  8  1  0
  2 10  1  0
  3 10  2  0
  4  6  1  0
  5  6  1  0
  5  7  1  0
  6 10  1  0
  7  8  2  0
  7  9  1  0
  8 11  1  0
  9 12  2  0
 11 13  2  0
 12 13  1  0
M  END
>  <PUBCHEM_COMPOUND_CID>  (1) 
9465

>  <PUBCHEM_CONFORMER_RMSD>  (1) 
0.6

>  <PUBCHEM_CONFORMER_DIVERSEORDER>  (1) 
3
26
2
27
18
14
6
12
21
29
17
30
9
11
15
28
20
5
10
23
8
22
16
24
1
7
13
19
4
25

>  <PUBCHEM_MMFF94_PARTIAL_CHARGES>  (1) 
20
1 -0.19
10 0.66
11 -0.15
12 -0.15
13 -0.15
17 0.15
18 0.36
19 0.36
2 -0.65
20 0.15
21 0.15
22 0.15
23 0.5
3 -0.57
4 -0.99
5 0.14
6 0.33
7 -0.14
8 0.19
9 -0.15

>  <PUBCHEM_EFFECTIVE_ROTOR_COUNT>  (1) 
3

>  <PUBCHEM_PHARMACOPHORE_FEATURES>  (1) 
6
1 2 acceptor
1 3 acceptor
1 4 cation
1 4 donor
3 2 3 10 anion
6 7 8 9 11 12 13 rings

>  <PUBCHEM_HEAVY_ATOM_COUNT>  (1) 
13

>  <PUBCHEM_ATOM_DEF_STEREO_COUNT>  (1) 
0

>  <PUBCHEM_ATOM_UDEF_STEREO_COUNT>  (1) 
1

>  <PUBCHEM_BOND_DEF_STEREO_COUNT>  (1) 
0

>  <PUBCHEM_BOND_UDEF_STEREO_COUNT>  (1) 
0

>  <PUBCHEM_ISOTOPIC_ATOM_COUNT>  (1) 
0

>  <PUBCHEM_COMPONENT_COUNT>  (1) 
1

>  <PUBCHEM_CACTVS_TAUTO_COUNT>  (1) 
1

>  <PUBCHEM_CONFORMER_ID>  (1) 
000024F900000003

>  <PUBCHEM_MMFF94_ENERGY>  (1) 
22.727

>  <PUBCHEM_FEATURE_SELFOVERLAP>  (1) 
30.503

>  <PUBCHEM_SHAPE_FINGERPRINT>  (1) 
12897270 3 18261389004984412053
12932764 1 18059853999569792729
14128692 85 18343863324997323874
15310529 11 18408886247962088435
15775835 57 18334584498920212260
16945 1 18337667645615232994
17844478 74 18187655746889215155
19422 9 18199759188131010867
23552423 10 18410007775460315953
2748010 2 18410848833093915844
528886 8 18263079933682700528
63268167 104 18335987476021043912
7364860 26 18200307839937941256
7832392 63 18336828576383121309
9939556 21 18411138004652209341

>  <PUBCHEM_SHAPE_MULTIPOLES>  (1) 
243.54
5.01
1.9
0.86
1.25
0.33
0.01
-0.85
0.58
-0.07
0.12
0.08
-0.14
-0.4

>  <PUBCHEM_SHAPE_SELFOVERLAP>  (1) 
504.712

>  <PUBCHEM_SHAPE_VOLUME>  (1) 
138.7

>  <PUBCHEM_COORDINATE_TYPE>  (1) 
2
5
10

$$$$
