9482
     RDKit          3D

 21 22  0  0  0  0  0  0  0  0999 V2000
   -6.0695   -0.7890   -0.1615 F   0  0  0  0  0  0  0  0  0  0  0  0
   -4.5001   -2.0738   -0.9298 F   0  0  0  0  0  0  0  0  0  0  0  0
   -4.7694   -1.8559    1.2169 F   0  0  0  0  0  0  0  0  0  0  0  0
    5.8361   -0.4515    0.1912 N   0  0  0  0  0  0  0  0  0  0  0  0
    0.3691    0.4436   -0.6177 N   0  0  0  0  0  0  0  0  0  0  0  0
   -0.2037    0.6213    0.4829 N   0  0  0  0  0  0  0  0  0  0  0  0
    4.4589   -0.2260   -0.0122 C   0  0  0  0  0  0  0  0  0  0  0  0
    3.5711   -1.3016   -0.0289 C   0  0  0  0  0  0  0  0  0  0  0  0
    3.9846    1.0727   -0.1974 C   0  0  0  0  0  0  0  0  0  0  0  0
    1.7415    0.2190   -0.4146 C   0  0  0  0  0  0  0  0  0  0  0  0
    2.2090   -1.0786   -0.2307 C   0  0  0  0  0  0  0  0  0  0  0  0
    2.6226    1.2958   -0.3989 C   0  0  0  0  0  0  0  0  0  0  0  0
   -3.8199   -0.0067    0.0627 C   0  0  0  0  0  0  0  0  0  0  0  0
    6.4494   -1.6903   -0.2445 C   0  0  0  0  0  0  0  0  0  0  0  0
    6.6593    0.5586    0.8262 C   0  0  0  0  0  0  0  0  0  0  0  0
   -1.5693    0.8450    0.2802 C   0  0  0  0  0  0  0  0  0  0  0  0
   -2.4578   -0.2302    0.2641 C   0  0  0  0  0  0  0  0  0  0  0  0
   -4.2935    1.2922   -0.1224 C   0  0  0  0  0  0  0  0  0  0  0  0
   -2.0430    2.1439    0.0952 C   0  0  0  0  0  0  0  0  0  0  0  0
   -3.4051    2.3674   -0.1059 C   0  0  0  0  0  0  0  0  0  0  0  0
   -4.7701   -1.1561    0.0452 C   0  0  0  0  0  0  0  0  0  0  0  0
  1 21  1  0
  2 21  1  0
  3 21  1  0
  4  7  1  0
  4 14  1  0
  4 15  1  0
  5  6  2  0
  5 10  1  0
  6 16  1  0
  7  8  2  0
  7  9  1  0
  8 11  1  0
  9 12  2  0
 10 11  2  0
 10 12  1  0
 13 17  2  0
 13 18  1  0
 13 21  1  0
 16 17  1  0
 16 19  2  0
 18 20  2  0
 19 20  1  0
M  END
>  <PUBCHEM_COMPOUND_CID>  (1) 
9482

>  <PUBCHEM_CONFORMER_RMSD>  (1) 
0.6

>  <PUBCHEM_CONFORMER_DIVERSEORDER>  (1) 
1
2
4
3
5
6

>  <PUBCHEM_MMFF94_PARTIAL_CHARGES>  (1) 
29
1 -0.34
10 0.18
11 -0.15
12 -0.15
13 -0.14
14 0.37
15 0.37
16 0.18
17 -0.15
18 -0.15
19 -0.15
2 -0.34
20 -0.15
21 1.16
22 0.15
23 0.15
24 0.15
25 0.15
3 -0.34
32 0.15
33 0.15
34 0.15
35 0.15
4 -0.84
5 -0.18
6 -0.18
7 0.1
8 -0.15
9 -0.15

>  <PUBCHEM_EFFECTIVE_ROTOR_COUNT>  (1) 
4

>  <PUBCHEM_PHARMACOPHORE_FEATURES>  (1) 
3
1 4 cation
6 13 16 17 18 19 20 rings
6 7 8 9 10 11 12 rings

>  <PUBCHEM_HEAVY_ATOM_COUNT>  (1) 
21

>  <PUBCHEM_ATOM_DEF_STEREO_COUNT>  (1) 
0

>  <PUBCHEM_ATOM_UDEF_STEREO_COUNT>  (1) 
0

>  <PUBCHEM_BOND_DEF_STEREO_COUNT>  (1) 
0

>  <PUBCHEM_BOND_UDEF_STEREO_COUNT>  (1) 
0

>  <PUBCHEM_ISOTOPIC_ATOM_COUNT>  (1) 
0

>  <PUBCHEM_COMPONENT_COUNT>  (1) 
1

>  <PUBCHEM_CACTVS_TAUTO_COUNT>  (1) 
1

>  <PUBCHEM_CONFORMER_ID>  (1) 
0000250A00000001

>  <PUBCHEM_MMFF94_ENERGY>  (1) 
64.5842

>  <PUBCHEM_FEATURE_SELFOVERLAP>  (1) 
15.223

>  <PUBCHEM_SHAPE_FINGERPRINT>  (1) 
10 15 18270951437017442056
10595046 47 18407761430614111060
11089746 13 11963391877393854206
11315181 36 17894916243044175997
11524674 6 16630526237282430727
11545043 162 18272083877410604472
12107183 9 17615685133569366064
12166972 35 17968100841154647580
12236239 1 18412825764128681372
12596602 18 18272649026840728264
12616971 3 17386301925369685109
12760667 363 18411420631466086947
13167823 11 18408885122443280070
13288520 33 18409168814261431925
13583140 156 17917418800789547180
1420 363 18272654541204189382
14251732 16 18412260662486530040
14461889 52 18411693323429850298
14508225 48 18334847351868884853
15196674 1 18410294692445635164
15716309 27 17988923374896282534
17349148 13 17821733844384585744
17834072 33 18335423469706218868
17834072 8 11169908381701535266
17844677 252 18341619208864807072
17857418 61 18408882940578905178
18222031 100 17458064863787849852
18681886 176 18411979166219397944
18927931 339 18409737257388347759
19489759 90 18186519890900066097
200 152 18412544305698960568
21033648 29 17274240761339754144
21054139 6 18040713684269479066
21150785 3 15213308551196002226
21267235 1 18409456881385187974
21709351 56 18186518787198999036
220451 1 18188216381981643504
23081809 10 17822297847406678996
23198884 109 11241965980087359943
23402539 116 18186800270697078573
23559900 14 18410566310383146649
26918003 58 18342738485784152305
3004659 81 18113897173597047825
34797466 226 17560528391251583988
3545911 37 18338518530049928364
4073 2 18187653491989206434
4214541 1 18409731725101529997
4325135 7 18411981381578471404
474229 33 18343301478734810566
5104073 3 18341895143475702728
559249 180 18335419028773078285
59755656 520 16008754593766253369
6431902 208 18409447029057947199
67856867 119 18334859467328074284
7495541 125 17917427661681541056
9709674 26 18336838519348384643

>  <PUBCHEM_SHAPE_MULTIPOLES>  (1) 
395.41
16.53
2.08
0.76
9.64
0.06
0.05
-5.67
1.38
-2.05
-0.06
-0.05
-0.1
0.34

>  <PUBCHEM_SHAPE_SELFOVERLAP>  (1) 
844.84

>  <PUBCHEM_SHAPE_VOLUME>  (1) 
222.4

>  <PUBCHEM_COORDINATE_TYPE>  (1) 
2
5
10

$$$$
