9485
     RDKit          3D

 12 11  0  0  0  0  0  0  0  0999 V2000
   -0.0132   -0.0889   -0.0263 N   0  0  0  0  0  0  0  0  0  0  0  0
    0.5971   -2.1275    1.0327 N   0  0  0  0  0  0  0  0  0  0  0  0
   -0.5561   -2.2337   -0.9675 N   0  0  0  0  0  0  0  0  0  0  0  0
   -1.0732    0.6748   -0.6413 C   0  0  0  0  0  0  0  0  0  0  0  0
    1.0594    0.6817    0.6183 C   0  0  0  0  0  0  0  0  0  0  0  0
   -2.4323    0.4076    0.0204 C   0  0  0  0  0  0  0  0  0  0  0  0
    2.4273    0.4103   -0.0232 C   0  0  0  0  0  0  0  0  0  0  0  0
   -2.4214    0.7438    1.5126 C   0  0  0  0  0  0  0  0  0  0  0  0
   -3.5713    1.1427   -0.6882 C   0  0  0  0  0  0  0  0  0  0  0  0
    2.4408    0.7508   -1.5144 C   0  0  0  0  0  0  0  0  0  0  0  0
    3.5586    1.1383    0.7049 C   0  0  0  0  0  0  0  0  0  0  0  0
   -0.0156   -1.4999   -0.0280 C   0  0  0  0  0  0  0  0  0  0  0  0
  1  4  1  0
  1  5  1  0
  1 12  1  0
  2 12  1  0
  3 12  2  0
  4  6  1  0
  5  7  1  0
  6  8  1  0
  6  9  1  0
  7 10  1  0
  7 11  1  0
M  END
>  <PUBCHEM_COMPOUND_CID>  (1) 
9485

>  <PUBCHEM_CONFORMER_RMSD>  (1) 
0.6

>  <PUBCHEM_CONFORMER_DIVERSEORDER>  (1) 
1
3
7
2
4
6
5

>  <PUBCHEM_MMFF94_PARTIAL_CHARGES>  (1) 
9
1 -0.79
12 0.55
2 -0.85
3 -0.85
31 0.4
32 0.4
33 0.4
4 0.37
5 0.37

>  <PUBCHEM_EFFECTIVE_ROTOR_COUNT>  (1) 
5

>  <PUBCHEM_PHARMACOPHORE_FEATURES>  (1) 
5
1 2 donor
1 3 donor
3 6 8 9 hydrophobe
3 7 10 11 hydrophobe
4 1 2 3 12 cation

>  <PUBCHEM_HEAVY_ATOM_COUNT>  (1) 
12

>  <PUBCHEM_ATOM_DEF_STEREO_COUNT>  (1) 
0

>  <PUBCHEM_ATOM_UDEF_STEREO_COUNT>  (1) 
0

>  <PUBCHEM_BOND_DEF_STEREO_COUNT>  (1) 
0

>  <PUBCHEM_BOND_UDEF_STEREO_COUNT>  (1) 
0

>  <PUBCHEM_ISOTOPIC_ATOM_COUNT>  (1) 
0

>  <PUBCHEM_COMPONENT_COUNT>  (1) 
1

>  <PUBCHEM_CACTVS_TAUTO_COUNT>  (1) 
1

>  <PUBCHEM_CONFORMER_ID>  (1) 
0000250D00000001

>  <PUBCHEM_MMFF94_ENERGY>  (1) 
25.1444

>  <PUBCHEM_FEATURE_SELFOVERLAP>  (1) 
25.42

>  <PUBCHEM_SHAPE_FINGERPRINT>  (1) 
1 1 18337104545332805126
12138202 97 17987797548219986604
12423570 1 10895797242357666518
12491281 212 16128112086455134208
15775835 57 18410565193358872360
16945 1 18059867176519063132
18186145 218 18131362885892810652
19837323 101 17988363774948871255
20361792 2 9223229628703517233
20645476 183 17822304534222366046
20653085 51 16558211344089996440
21028194 46 18409452487596772889
21061003 4 17615132083452582931
21524375 3 18410289215934850433
21930827 45 18198920269127146430
23402539 116 17917132975332809988
23419403 2 16824820872307207862
23526113 38 16702306758531852242
276578 36 18409451358115235296
305870 269 18268993094205591728
528862 383 18189605056076787394
6333449 129 18058448871054322932
81228 2 17906740545745161634
81539 233 18113894914586733487

>  <PUBCHEM_SHAPE_MULTIPOLES>  (1) 
232.01
5.19
1.87
1.29
0.01
1.56
0.01
-3.42
0
0.01
-0.01
-0.02
-0.12
-0.05

>  <PUBCHEM_SHAPE_SELFOVERLAP>  (1) 
427.6

>  <PUBCHEM_SHAPE_VOLUME>  (1) 
146.1

>  <PUBCHEM_COORDINATE_TYPE>  (1) 
2
5
10

$$$$
