9487
     RDKit          3D

 18 19  0  0  0  0  0  0  0  0999 V2000
   -0.0027   -0.6374   -0.0087 N   0  0  0  0  0  0  0  0  0  0  0  0
    0.7539   -2.6795   -0.9211 N   0  0  0  0  0  0  0  0  0  0  0  0
   -0.6997   -2.7607    0.8740 N   0  0  0  0  0  0  0  0  0  0  0  0
   -0.7837    0.1487    0.9444 C   0  0  0  0  0  0  0  0  0  0  0  0
    0.7922    0.1295   -0.9661 C   0  0  0  0  0  0  0  0  0  0  0  0
   -2.1798    0.4103    0.4450 C   0  0  0  0  0  0  0  0  0  0  0  0
    2.1801    0.4038   -0.4507 C   0  0  0  0  0  0  0  0  0  0  0  0
   -0.0156   -2.0387    0.0232 C   0  0  0  0  0  0  0  0  0  0  0  0
   -2.4335    1.5465   -0.3105 C   0  0  0  0  0  0  0  0  0  0  0  0
    2.4205    1.5565    0.2842 C   0  0  0  0  0  0  0  0  0  0  0  0
   -3.1932   -0.4888    0.7466 C   0  0  0  0  0  0  0  0  0  0  0  0
    3.1992   -0.4998   -0.7171 C   0  0  0  0  0  0  0  0  0  0  0  0
   -3.7268    1.7889   -0.7735 C   0  0  0  0  0  0  0  0  0  0  0  0
    3.7061    1.8107    0.7621 C   0  0  0  0  0  0  0  0  0  0  0  0
   -4.4865   -0.2465    0.2835 C   0  0  0  0  0  0  0  0  0  0  0  0
    4.4847   -0.2456   -0.2391 C   0  0  0  0  0  0  0  0  0  0  0  0
   -4.7532    0.8924   -0.4766 C   0  0  0  0  0  0  0  0  0  0  0  0
    4.7380    0.9097    0.5005 C   0  0  0  0  0  0  0  0  0  0  0  0
  1  4  1  0
  1  5  1  0
  1  8  1  0
  2  8  1  0
  3  8  2  0
  4  6  1  0
  5  7  1  0
  6  9  2  0
  6 11  1  0
  7 10  2  0
  7 12  1  0
  9 13  1  0
 10 14  1  0
 11 15  2  0
 12 16  2  0
 13 17  2  0
 14 18  2  0
 15 17  1  0
 16 18  1  0
M  END
>  <PUBCHEM_COMPOUND_CID>  (1) 
9487

>  <PUBCHEM_CONFORMER_RMSD>  (1) 
0.6

>  <PUBCHEM_CONFORMER_DIVERSEORDER>  (1) 
1
5
69
33
2
66
43
15
16
23
55
9
45
71
65
19
68
21
51
56
72
38
32
50
54
22
28
42
67
46
7
14
41
47
17
64
34
12
52
53
37
13
35
8
63
58
10
39
62
20
59
11
18
36
61
40
3
44
57
49
27
60
48
70
26
31
24
25
4
30
29
6

>  <PUBCHEM_MMFF94_PARTIAL_CHARGES>  (1) 
31
1 -0.79
10 -0.15
11 -0.15
12 -0.15
13 -0.15
14 -0.15
15 -0.15
16 -0.15
17 -0.15
18 -0.15
2 -0.85
23 0.15
24 0.15
25 0.15
26 0.15
27 0.15
28 0.15
29 0.15
3 -0.85
30 0.15
31 0.15
32 0.15
33 0.4
34 0.4
35 0.4
4 0.51
5 0.51
6 -0.14
7 -0.14
8 0.55
9 -0.15

>  <PUBCHEM_EFFECTIVE_ROTOR_COUNT>  (1) 
5

>  <PUBCHEM_PHARMACOPHORE_FEATURES>  (1) 
5
1 2 donor
1 3 donor
4 1 2 3 8 cation
6 6 9 11 13 15 17 rings
6 7 10 12 14 16 18 rings

>  <PUBCHEM_HEAVY_ATOM_COUNT>  (1) 
18

>  <PUBCHEM_ATOM_DEF_STEREO_COUNT>  (1) 
0

>  <PUBCHEM_ATOM_UDEF_STEREO_COUNT>  (1) 
0

>  <PUBCHEM_BOND_DEF_STEREO_COUNT>  (1) 
0

>  <PUBCHEM_BOND_UDEF_STEREO_COUNT>  (1) 
0

>  <PUBCHEM_ISOTOPIC_ATOM_COUNT>  (1) 
0

>  <PUBCHEM_COMPONENT_COUNT>  (1) 
1

>  <PUBCHEM_CACTVS_TAUTO_COUNT>  (1) 
1

>  <PUBCHEM_CONFORMER_ID>  (1) 
0000250F00000001

>  <PUBCHEM_MMFF94_ENERGY>  (1) 
54.4509

>  <PUBCHEM_FEATURE_SELFOVERLAP>  (1) 
25.42

>  <PUBCHEM_SHAPE_FINGERPRINT>  (1) 
10646746 165 18334013860949210620
10871710 139 16750450270671074517
10922049 32 18410573989451855602
11132069 177 18113620079856562749
11370993 70 18410854360621977691
12011746 2 18341621391293243020
12077114 3 18335144232148805106
12119455 92 18334569144438470236
121448 382 18339352076408161319
12403259 415 18410582781244804653
12403260 363 18410571790428768933
12500047 106 18339079401829489472
12592029 89 18334575715807310722
12596602 18 15792021111586937152
12670546 56 15213018271246165428
12788726 201 17027709595425893642
14178000 22 18335975441380411491
14251751 93 18341324565649956607
14251764 3 18410570686616931589
14251764 38 18410858758679941257
1813 80 12107785151522045706
18186145 218 18201450163588506136
192875 21 17489591147542555272
200 152 17489306369424776577
20197701 30 18410567392382400747
204376 136 18342460369424056646
20645477 56 18338515365007132520
20645477 70 17703519817950002278
21033648 29 18411408531858068344
212916 134 18337374016139479584
21524375 3 18410858762968867246
22950370 63 9223231874918580809
23227448 37 18270397329341288837
23402539 116 18411974788919898501
23557571 272 17967827020273283853
23558518 356 17756983772518822592
23559900 14 18272937133267912450
23622692 88 18410844461671835602
351380 180 18411134740424485728
4340502 62 18409455774096164827
474 4 18202003235138401688
474229 33 18339359768567851479
495365 180 17775278392201547418
5104073 3 18116720621448513065
58051976 378 18410292484974662127
59755656 215 18335705979369134351
6138700 20 18195249919484848534
6333272 397 18413389856089826784
633830 44 17702963455843461737
69090 78 18342457083916681802
7164475 11 17903642122104806414
7364860 26 18194965128265552775
81228 2 17834664281531877259
83771 10 8214145153005376868
84936 182 18196370312494122385

>  <PUBCHEM_SHAPE_MULTIPOLES>  (1) 
355.49
9.67
2.31
0.98
0.09
1.43
-0.01
-4.5
0.06
-0.02
0.01
0.01
0.05
1.22

>  <PUBCHEM_SHAPE_SELFOVERLAP>  (1) 
750.977

>  <PUBCHEM_SHAPE_VOLUME>  (1) 
196.3

>  <PUBCHEM_COORDINATE_TYPE>  (1) 
2
5
10

$$$$
