9492
     RDKit          3D

 13 13  0  0  0  0  0  0  0  0999 V2000
   -1.3655    2.1547   -0.0004 O   0  0  0  0  0  0  0  0  0  0  0  0
   -3.2319   -1.4723   -0.0009 O   0  0  0  0  0  0  0  0  0  0  0  0
   -3.3744    0.7183   -0.0003 O   0  0  0  0  0  0  0  0  0  0  0  0
    3.5884   -1.0932   -0.0013 O   0  0  0  0  0  0  0  0  0  0  0  0
    3.4754    1.0992   -0.0006 O   0  0  0  0  0  0  0  0  0  0  0  0
   -2.6984   -0.3377   -0.0005 N   0  0  0  0  0  0  0  0  0  0  0  0
    2.9247   -0.0283   -0.0003 N   0  0  0  0  0  0  0  0  0  0  0  0
   -1.2794   -0.2455    0.0004 C   0  0  0  0  0  0  0  0  0  0  0  0
    1.5066   -0.1015    0.0010 C   0  0  0  0  0  0  0  0  0  0  0  0
   -0.6453    0.9970    0.0005 C   0  0  0  0  0  0  0  0  0  0  0  0
    0.7479    1.0690    0.0008 C   0  0  0  0  0  0  0  0  0  0  0  0
   -0.5206   -1.4159    0.0007 C   0  0  0  0  0  0  0  0  0  0  0  0
    0.8723   -1.3438    0.0010 C   0  0  0  0  0  0  0  0  0  0  0  0
  1 10  1  0
  2  6  1  0
  3  6  2  0
  4  7  1  0
  5  7  2  0
  6  8  1  0
  7  9  1  0
  8 10  2  0
  8 12  1  0
  9 11  2  0
  9 13  1  0
 10 11  1  0
 12 13  2  0
M  CHG  4   2  -1   4  -1   6   1   7   1
M  END
>  <PUBCHEM_COMPOUND_CID>  (1) 
9492

>  <PUBCHEM_CONFORMER_RMSD>  (1) 
0.6

>  <PUBCHEM_CONFORMER_DIVERSEORDER>  (1) 
1

>  <PUBCHEM_MMFF94_PARTIAL_CHARGES>  (1) 
17
1 -0.53
10 0.08
11 -0.15
12 -0.15
13 -0.15
14 0.15
15 0.15
16 0.15
17 0.45
2 -0.52
3 -0.52
4 -0.52
5 -0.52
6 0.91
7 0.91
8 0.13
9 0.13

>  <PUBCHEM_EFFECTIVE_ROTOR_COUNT>  (1) 
2

>  <PUBCHEM_PHARMACOPHORE_FEATURES>  (1) 
8
1 1 donor
1 2 acceptor
1 2 anion
1 3 acceptor
1 4 acceptor
1 4 anion
1 5 acceptor
6 8 9 10 11 12 13 rings

>  <PUBCHEM_HEAVY_ATOM_COUNT>  (1) 
13

>  <PUBCHEM_ATOM_DEF_STEREO_COUNT>  (1) 
0

>  <PUBCHEM_ATOM_UDEF_STEREO_COUNT>  (1) 
0

>  <PUBCHEM_BOND_DEF_STEREO_COUNT>  (1) 
0

>  <PUBCHEM_BOND_UDEF_STEREO_COUNT>  (1) 
0

>  <PUBCHEM_ISOTOPIC_ATOM_COUNT>  (1) 
0

>  <PUBCHEM_COMPONENT_COUNT>  (1) 
1

>  <PUBCHEM_CACTVS_TAUTO_COUNT>  (1) 
4

>  <PUBCHEM_CONFORMER_ID>  (1) 
0000251400000001

>  <PUBCHEM_MMFF94_ENERGY>  (1) 
44.7452

>  <PUBCHEM_FEATURE_SELFOVERLAP>  (1) 
40.76

>  <PUBCHEM_SHAPE_FINGERPRINT>  (1) 
10219947 1 18412547634330231007
11132069 177 18412821378402589408
12032990 46 18410017671038981963
12897270 3 18410854334862574047
13380535 76 18195805163770386525
14325111 11 18410855468876345440
16945 1 18410573967992758915
193761 8 17762055437010083235
20871998 184 18201722885564442143
21501502 16 18194399978982641530
23402539 116 18341320150317996862
23402655 69 18268412561563565269
23463225 33 18335981974241810114
23552423 10 18189900816199139874
23559900 14 18413668003189355098
2748010 2 18050848015759147871
3312278 4 18408886230919343451
5084963 1 18272933804135482234
528886 8 18411694383563981323

>  <PUBCHEM_SHAPE_MULTIPOLES>  (1) 
228.23
5.31
1.74
0.56
1.17
0.25
0
-0.41
0
-0.4
0
0.01
-0.01
0

>  <PUBCHEM_SHAPE_SELFOVERLAP>  (1) 
485.913

>  <PUBCHEM_SHAPE_VOLUME>  (1) 
127

>  <PUBCHEM_COORDINATE_TYPE>  (1) 
2
5
10

$$$$
