9496
     RDKit          3D

 12 11  0  0  0  0  0  0  0  0999 V2000
   -0.0071    0.4895    0.0038 N   0  0  0  0  0  0  0  0  0  0  0  0
    0.9959    2.5294    0.6545 N   0  0  0  0  0  0  0  0  0  0  0  0
   -0.9212    2.6188   -0.6332 N   0  0  0  0  0  0  0  0  0  0  0  0
   -1.0351   -0.2902   -0.6752 C   0  0  0  0  0  0  0  0  0  0  0  0
    1.0337   -0.2799    0.6865 C   0  0  0  0  0  0  0  0  0  0  0  0
   -2.2214   -0.5304    0.2570 C   0  0  0  0  0  0  0  0  0  0  0  0
    2.2048   -0.5434   -0.2584 C   0  0  0  0  0  0  0  0  0  0  0  0
   -3.3215   -1.3291   -0.4430 C   0  0  0  0  0  0  0  0  0  0  0  0
    3.3143   -1.3287    0.4421 C   0  0  0  0  0  0  0  0  0  0  0  0
   -0.0201    1.8929   -0.0214 C   0  0  0  0  0  0  0  0  0  0  0  0
   -4.4908   -1.6029    0.4893 C   0  0  0  0  0  0  0  0  0  0  0  0
    4.4684   -1.6259   -0.5020 C   0  0  0  0  0  0  0  0  0  0  0  0
  1  4  1  0
  1  5  1  0
  1 10  1  0
  2 10  1  0
  3 10  2  0
  4  6  1  0
  5  7  1  0
  6  8  1  0
  7  9  1  0
  8 11  1  0
  9 12  1  0
M  END
>  <PUBCHEM_COMPOUND_CID>  (1) 
9496

>  <PUBCHEM_CONFORMER_RMSD>  (1) 
0.8

>  <PUBCHEM_CONFORMER_DIVERSEORDER>  (1) 
1
12
41
14
34
38
29
32
26
6
17
35
20
27
23
19
31
2
22
8
15
30
3
10
7
36
4
25
21
13
18
39
37
33
5
11
42
28
24
40
9
16

>  <PUBCHEM_MMFF94_PARTIAL_CHARGES>  (1) 
9
1 -0.79
10 0.55
2 -0.85
3 -0.85
31 0.4
32 0.4
33 0.4
4 0.37
5 0.37

>  <PUBCHEM_EFFECTIVE_ROTOR_COUNT>  (1) 
7

>  <PUBCHEM_PHARMACOPHORE_FEATURES>  (1) 
5
1 11 hydrophobe
1 12 hydrophobe
1 2 donor
1 3 donor
4 1 2 3 10 cation

>  <PUBCHEM_HEAVY_ATOM_COUNT>  (1) 
12

>  <PUBCHEM_ATOM_DEF_STEREO_COUNT>  (1) 
0

>  <PUBCHEM_ATOM_UDEF_STEREO_COUNT>  (1) 
0

>  <PUBCHEM_BOND_DEF_STEREO_COUNT>  (1) 
0

>  <PUBCHEM_BOND_UDEF_STEREO_COUNT>  (1) 
0

>  <PUBCHEM_ISOTOPIC_ATOM_COUNT>  (1) 
0

>  <PUBCHEM_COMPONENT_COUNT>  (1) 
1

>  <PUBCHEM_CACTVS_TAUTO_COUNT>  (1) 
1

>  <PUBCHEM_CONFORMER_ID>  (1) 
0000251800000001

>  <PUBCHEM_MMFF94_ENERGY>  (1) 
12.4689

>  <PUBCHEM_FEATURE_SELFOVERLAP>  (1) 
25.42

>  <PUBCHEM_SHAPE_FINGERPRINT>  (1) 
12032990 46 18410573989462697415
12119455 92 11383835930774930155
12841375 25 18410292527397074031
14252887 29 18338792437304462698
161256 15 18337944705228783548
18534176 82 17983568607672616140
20097449 115 18410011052562606333
20339313 130 18339927124993993331
204376 136 9655575223159444471
20645477 70 18192977439292778975
20671657 53 18410579521770659531
20708731 107 18044098075411410133
20711985 327 18272939335879487479
20871998 184 18130219333738713246
20871998 22 18411695521424424592
20871999 31 18261108526345311743
21061003 4 18412543215125524551
21296965 67 18410572881450448570
21426921 1 18193558870426528158
23402539 116 18261109622031756286
23532345 12 18131357431922479547
23557571 272 18128822937176488926
23598291 2 18129094705416815215
23598294 1 18194673779053514466
2748010 2 18192404520319168077
3071541 250 18409452522146486924
68521 5 18335702680865782477
7364860 26 18125721433469575737

>  <PUBCHEM_SHAPE_MULTIPOLES>  (1) 
232.01
7.29
2.65
0.82
0.11
2.33
0
-7.78
0.01
-0.01
0.02
-0.01
-0.01
0.49

>  <PUBCHEM_SHAPE_SELFOVERLAP>  (1) 
420.985

>  <PUBCHEM_SHAPE_VOLUME>  (1) 
146.7

>  <PUBCHEM_COORDINATE_TYPE>  (1) 
2
5
10

$$$$
