9498
     RDKit          3D

 18 19  0  0  0  0  0  0  0  0999 V2000
    0.5973    2.6025   -0.3204 O   0  0  0  0  0  0  0  0  0  0  0  0
   -5.6643   -0.1512    0.5192 O   0  0  0  0  0  0  0  0  0  0  0  0
   -4.8867   -2.0495   -0.2624 O   0  0  0  0  0  0  0  0  0  0  0  0
    2.7878    0.9725   -0.1337 N   0  0  0  0  0  0  0  0  0  0  0  0
    1.5224    0.4926   -0.0903 N   0  0  0  0  0  0  0  0  0  0  0  0
   -4.7180   -0.8593    0.0976 N   0  0  0  0  0  0  0  0  0  0  0  0
    5.7406   -0.9473    0.4873 C   0  0  0  0  0  0  0  0  0  0  0  0
    4.7673   -2.0118   -0.0105 C   0  0  0  0  0  0  0  0  0  0  0  0
    5.1585    0.3689   -0.0136 C   0  0  0  0  0  0  0  0  0  0  0  0
    3.3882   -1.3952    0.1904 C   0  0  0  0  0  0  0  0  0  0  0  0
    3.6909    0.0622    0.0020 C   0  0  0  0  0  0  0  0  0  0  0  0
    0.4733    1.3871   -0.1918 C   0  0  0  0  0  0  0  0  0  0  0  0
   -0.8887    0.7975   -0.1154 C   0  0  0  0  0  0  0  0  0  0  0  0
   -1.9268    1.5781    0.3482 C   0  0  0  0  0  0  0  0  0  0  0  0
   -1.0707   -0.5112   -0.5113 C   0  0  0  0  0  0  0  0  0  0  0  0
   -3.4166   -0.2964    0.0252 C   0  0  0  0  0  0  0  0  0  0  0  0
   -3.2053    1.0249    0.4196 C   0  0  0  0  0  0  0  0  0  0  0  0
   -2.3492   -1.0645   -0.4402 C   0  0  0  0  0  0  0  0  0  0  0  0
  1 12  2  0
  2  6  1  0
  3  6  2  0
  4  5  1  0
  4 11  2  3
  5 12  1  0
  6 16  1  0
  7  8  1  0
  7  9  1  0
  8 10  1  0
  9 11  1  0
 10 11  1  0
 12 13  1  0
 13 14  2  0
 13 15  1  0
 14 17  1  0
 15 18  2  0
 16 17  2  0
 16 18  1  0
M  CHG  2   2  -1   6   1
M  END
>  <PUBCHEM_COMPOUND_CID>  (1) 
9498

>  <PUBCHEM_CONFORMER_RMSD>  (1) 
0.6

>  <PUBCHEM_CONFORMER_DIVERSEORDER>  (1) 
1
2

>  <PUBCHEM_MMFF94_PARTIAL_CHARGES>  (1) 
21
1 -0.57
10 0.06
11 0.33
12 0.54
13 0.09
14 -0.15
15 -0.15
16 0.13
17 -0.15
18 -0.15
2 -0.52
27 0.37
28 0.15
29 0.15
3 -0.52
30 0.15
31 0.15
4 -0.51
5 -0.37
6 0.91
9 0.06

>  <PUBCHEM_EFFECTIVE_ROTOR_COUNT>  (1) 
4.8

>  <PUBCHEM_PHARMACOPHORE_FEATURES>  (1) 
8
1 1 acceptor
1 2 acceptor
1 2 anion
1 3 acceptor
1 4 acceptor
1 5 donor
5 7 8 9 10 11 rings
6 13 14 15 16 17 18 rings

>  <PUBCHEM_HEAVY_ATOM_COUNT>  (1) 
18

>  <PUBCHEM_ATOM_DEF_STEREO_COUNT>  (1) 
0

>  <PUBCHEM_ATOM_UDEF_STEREO_COUNT>  (1) 
0

>  <PUBCHEM_BOND_DEF_STEREO_COUNT>  (1) 
0

>  <PUBCHEM_BOND_UDEF_STEREO_COUNT>  (1) 
0

>  <PUBCHEM_ISOTOPIC_ATOM_COUNT>  (1) 
0

>  <PUBCHEM_COMPONENT_COUNT>  (1) 
1

>  <PUBCHEM_CACTVS_TAUTO_COUNT>  (1) 
2

>  <PUBCHEM_CONFORMER_ID>  (1) 
0000251A00000001

>  <PUBCHEM_MMFF94_ENERGY>  (1) 
51.3961

>  <PUBCHEM_FEATURE_SELFOVERLAP>  (1) 
40.684

>  <PUBCHEM_SHAPE_FINGERPRINT>  (1) 
100836 57 10447926191815144690
10968037 39 18408042935523373348
12107183 9 17692536615626490026
12236239 1 18410576188475111225
12596602 18 17418094338594155890
12633257 1 16056591088593548258
12839892 36 17489870475004177655
13167823 11 18411698764525581642
13288520 33 18410575080674216221
13533116 47 18341331201015771665
13551218 46 18342740676154403799
13690532 89 18409730677234764429
13862211 1 18341893021967781135
1420 369 18410576171696201102
14251764 18 18272376386695972171
15042514 8 18267587914161609505
15196674 1 18410855417637528694
15342168 16 11527936885645249882
15352361 1 18409448089792997802
17804303 29 18201720651975791049
17834072 33 18408605881213651244
17857418 61 18411135844220349395
17862501 102 18271810142175612977
1813 80 17749396931876001644
19141452 34 18273212023490403663
193927 3 18261122863104433690
19784866 240 18187651301276108973
200 152 18409727361229816112
20261772 1 18059851771025501134
20281475 54 18409732837835676308
20374829 77 18261387823910623232
20645477 56 10159699105381716809
20645477 70 18186800309763097868
21267235 1 18410581669328186518
22079108 93 13110957647892350949
22950370 63 18409732850477562744
2297311 6 18059868233756361860
23402539 116 18131627894492176061
23559900 14 18337946917395397593
2871803 45 18040995112233371938
3004659 81 18113337497157792390
314194 84 18409734005607591618
335352 9 18411418415373699837
3421961 26 18339921618957079520
351380 3 18409727365741360026
42 15 18413672413239910485
4214541 1 18339360768994570528
4325135 7 18260552243098986300
465052 167 18339087093931696647
5104073 3 18130234881984353947
542803 24 13110958734687816538
559249 180 18262795160039276555
59682541 35 18339916126405486928

>  <PUBCHEM_SHAPE_MULTIPOLES>  (1) 
337.88
13.08
2.03
0.67
3.58
0.17
0.01
-6.93
1.76
-0.12
-0.12
-0.04
-0.01
-0.48

>  <PUBCHEM_SHAPE_SELFOVERLAP>  (1) 
717.319

>  <PUBCHEM_SHAPE_VOLUME>  (1) 
190.3

>  <PUBCHEM_COORDINATE_TYPE>  (1) 
2
5
10

$$$$
