9501
     RDKit          3D

 13 13  0  0  0  0  0  0  0  0999 V2000
    3.1429   -2.0084    0.0113 F   0  0  0  0  0  0  0  0  0  0  0  0
   -1.4660   -1.5846   -0.0108 O   0  0  0  0  0  0  0  0  0  0  0  0
   -3.1093    0.0458    0.0034 N   0  0  0  0  0  0  0  0  0  0  0  0
   -0.8326    0.6540   -0.0016 N   0  0  0  0  0  0  0  0  0  0  0  0
    0.5807    0.5514   -0.0026 C   0  0  0  0  0  0  0  0  0  0  0  0
   -1.7632   -0.3881    0.0040 C   0  0  0  0  0  0  0  0  0  0  0  0
    1.1670   -0.7024    0.0040 C   0  0  0  0  0  0  0  0  0  0  0  0
    1.3422    1.7073   -0.0085 C   0  0  0  0  0  0  0  0  0  0  0  0
   -4.2255   -0.8910   -0.0148 C   0  0  0  0  0  0  0  0  0  0  0  0
   -3.4691    1.4622    0.0210 C   0  0  0  0  0  0  0  0  0  0  0  0
    2.5583   -0.8034    0.0044 C   0  0  0  0  0  0  0  0  0  0  0  0
    2.7333    1.6063   -0.0080 C   0  0  0  0  0  0  0  0  0  0  0  0
    3.3414    0.3510   -0.0017 C   0  0  0  0  0  0  0  0  0  0  0  0
  1 11  1  0
  2  6  2  0
  3  6  1  0
  3  9  1  0
  3 10  1  0
  4  5  1  0
  4  6  1  0
  5  7  2  0
  5  8  1  0
  7 11  1  0
  8 12  2  0
 11 13  2  0
 12 13  1  0
M  END
>  <PUBCHEM_COMPOUND_CID>  (1) 
9501

>  <PUBCHEM_CONFORMER_RMSD>  (1) 
0.6

>  <PUBCHEM_CONFORMER_DIVERSEORDER>  (1) 
1
10
8
3
5
2
7
9
6
4

>  <PUBCHEM_MMFF94_PARTIAL_CHARGES>  (1) 
18
1 -0.19
10 0.3
11 0.19
12 -0.15
13 -0.15
14 0.37
15 0.15
16 0.15
2 -0.57
23 0.15
24 0.15
3 -0.66
4 -0.55
5 0.12
6 0.69
7 -0.15
8 -0.15
9 0.3

>  <PUBCHEM_EFFECTIVE_ROTOR_COUNT>  (1) 
3

>  <PUBCHEM_PHARMACOPHORE_FEATURES>  (1) 
3
1 2 acceptor
1 4 donor
6 5 7 8 11 12 13 rings

>  <PUBCHEM_HEAVY_ATOM_COUNT>  (1) 
13

>  <PUBCHEM_ATOM_DEF_STEREO_COUNT>  (1) 
0

>  <PUBCHEM_ATOM_UDEF_STEREO_COUNT>  (1) 
0

>  <PUBCHEM_BOND_DEF_STEREO_COUNT>  (1) 
0

>  <PUBCHEM_BOND_UDEF_STEREO_COUNT>  (1) 
0

>  <PUBCHEM_ISOTOPIC_ATOM_COUNT>  (1) 
0

>  <PUBCHEM_COMPONENT_COUNT>  (1) 
1

>  <PUBCHEM_CACTVS_TAUTO_COUNT>  (1) 
2

>  <PUBCHEM_CONFORMER_ID>  (1) 
0000251D00000001

>  <PUBCHEM_MMFF94_ENERGY>  (1) 
37.0636

>  <PUBCHEM_FEATURE_SELFOVERLAP>  (1) 
15.223

>  <PUBCHEM_SHAPE_FINGERPRINT>  (1) 
10130415 120 18337105670745871698
10608611 8 18409726291983776725
10922523 26 18334010579762839261
10980938 120 18411420635127953984
11471102 20 18410007758370163156
12932764 1 17489019465709435601
13296908 3 18408323276449395659
13380535 76 18337107981211748282
14144814 61 18411419514109886809
14251717 144 18410289228830587735
14325111 11 18410856564314740385
14415576 193 18262804085208567420
15442244 35 18339925892027208024
15477762 27 18409730681418786574
15536298 74 18342457045351504050
18186145 218 17967529043494060821
19422 9 18411422795533329731
20201158 50 18408604781533218418
20645477 70 18411133624060101623
20871998 22 18126850400516188038
21501502 16 18411699898133223245
21501925 9 18410845560581998618
23402539 116 18272362110161487365
23402655 69 18413102870939204869
23463225 33 18411982442366815094
3248919 1 17458631163251265749
5104073 3 18410855451759962657
581208 293 18338230569904287044
69090 78 18341609365126597943
7364860 26 18343020025649381720
93112 12 18410855481814053453
9709674 26 18410016575896310883

>  <PUBCHEM_SHAPE_MULTIPOLES>  (1) 
244.43
7.11
1.83
0.59
4.6
0.04
0
0.46
0
-0.67
0
-0.01
-0.03
-0.02

>  <PUBCHEM_SHAPE_SELFOVERLAP>  (1) 
500.723

>  <PUBCHEM_SHAPE_VOLUME>  (1) 
142.3

>  <PUBCHEM_COORDINATE_TYPE>  (1) 
2
5
10

$$$$
