9506
     RDKit          3D

 12 12  0  0  0  0  0  0  0  0999 V2000
   -1.6197    0.5999   -0.2557 N   0  0  0  0  0  0  0  0  0  0  0  0
   -3.3561   -0.2703    1.0871 N   0  0  0  0  0  0  0  0  0  0  0  0
   -2.2156   -1.7275   -0.2976 N   0  0  0  0  0  0  0  0  0  0  0  0
   -0.5312    0.5076   -1.2270 C   0  0  0  0  0  0  0  0  0  0  0  0
    0.7854    0.1967   -0.5662 C   0  0  0  0  0  0  0  0  0  0  0  0
    1.5973    1.2376   -0.1377 C   0  0  0  0  0  0  0  0  0  0  0  0
    1.1685   -1.1262   -0.3944 C   0  0  0  0  0  0  0  0  0  0  0  0
   -1.8690    1.9301    0.2964 C   0  0  0  0  0  0  0  0  0  0  0  0
   -2.3774   -0.5078    0.1489 C   0  0  0  0  0  0  0  0  0  0  0  0
    2.8171    0.9498    0.4749 C   0  0  0  0  0  0  0  0  0  0  0  0
    2.3883   -1.4139    0.2183 C   0  0  0  0  0  0  0  0  0  0  0  0
    3.2124   -0.3758    0.6529 C   0  0  0  0  0  0  0  0  0  0  0  0
  1  4  1  0
  1  8  1  0
  1  9  1  0
  2  9  1  0
  3  9  2  0
  4  5  1  0
  5  6  2  0
  5  7  1  0
  6 10  1  0
  7 11  2  0
 10 12  2  0
 11 12  1  0
M  END
>  <PUBCHEM_COMPOUND_CID>  (1) 
9506

>  <PUBCHEM_CONFORMER_RMSD>  (1) 
0.6

>  <PUBCHEM_CONFORMER_DIVERSEORDER>  (1) 
1
9
17
16
11
10
2
14
13
12
15
8
6
7
4
5
3

>  <PUBCHEM_MMFF94_PARTIAL_CHARGES>  (1) 
20
1 -0.79
10 -0.15
11 -0.15
12 -0.15
15 0.15
16 0.15
2 -0.85
20 0.15
21 0.15
22 0.15
23 0.4
24 0.4
25 0.4
3 -0.85
4 0.51
5 -0.14
6 -0.15
7 -0.15
8 0.37
9 0.55

>  <PUBCHEM_EFFECTIVE_ROTOR_COUNT>  (1) 
3

>  <PUBCHEM_PHARMACOPHORE_FEATURES>  (1) 
4
1 2 donor
1 3 donor
4 1 2 3 9 cation
6 5 6 7 10 11 12 rings

>  <PUBCHEM_HEAVY_ATOM_COUNT>  (1) 
12

>  <PUBCHEM_ATOM_DEF_STEREO_COUNT>  (1) 
0

>  <PUBCHEM_ATOM_UDEF_STEREO_COUNT>  (1) 
0

>  <PUBCHEM_BOND_DEF_STEREO_COUNT>  (1) 
0

>  <PUBCHEM_BOND_UDEF_STEREO_COUNT>  (1) 
0

>  <PUBCHEM_ISOTOPIC_ATOM_COUNT>  (1) 
0

>  <PUBCHEM_COMPONENT_COUNT>  (1) 
1

>  <PUBCHEM_CACTVS_TAUTO_COUNT>  (1) 
1

>  <PUBCHEM_CONFORMER_ID>  (1) 
0000252200000001

>  <PUBCHEM_MMFF94_ENERGY>  (1) 
34.4847

>  <PUBCHEM_FEATURE_SELFOVERLAP>  (1) 
20.346

>  <PUBCHEM_SHAPE_FINGERPRINT>  (1) 
10857977 72 18187918478454410124
11471102 22 18409731759608565402
12251169 10 18411982450956697632
12382932 28 18342183314290661371
12696612 119 18410576197339423956
12932764 1 18342740719203822804
13764800 53 15769785675454084251
15775835 57 17988646345236902208
16945 1 18412260661937631076
19973954 147 18412543180591647776
20201158 50 18334007298291812867
20361792 2 16226053292460008487
20528008 55 18341323448984540853
20653085 51 10087648134220185279
20653091 64 18259985959770959936
20828058 43 18272366486247904028
22445834 79 18335138652743811506
2748010 2 18266739069577553526
305870 269 13758078454761979332

>  <PUBCHEM_SHAPE_MULTIPOLES>  (1) 
232.01
5.2
1.72
0.93
0.52
0.08
0.06
-0.65
-1.78
0.29
-0.04
0.2
0.04
0

>  <PUBCHEM_SHAPE_SELFOVERLAP>  (1) 
471.484

>  <PUBCHEM_SHAPE_VOLUME>  (1) 
133.2

>  <PUBCHEM_COORDINATE_TYPE>  (1) 
2
5
10

$$$$
