9510
     RDKit          3D

 12 12  0  0  0  0  0  0  0  0999 V2000
    3.7896   -1.8662   -0.0037 Cl  0  0  0  0  0  0  0  0  0  0  0  0
   -3.5835   -0.6560   -1.1007 F   0  0  0  0  0  0  0  0  0  0  0  0
   -3.5983   -0.6747    1.0800 F   0  0  0  0  0  0  0  0  0  0  0  0
   -1.0669   -0.2107    0.0109 N   0  0  0  0  0  0  0  0  0  0  0  0
   -2.0919    0.7866    0.0123 C   0  0  0  0  0  0  0  0  0  0  0  0
    0.3079    0.1039    0.0062 C   0  0  0  0  0  0  0  0  0  0  0  0
    1.2575   -0.9179    0.0042 C   0  0  0  0  0  0  0  0  0  0  0  0
    0.7180    1.4372    0.0027 C   0  0  0  0  0  0  0  0  0  0  0  0
   -3.4543    0.1282   -0.0026 C   0  0  0  0  0  0  0  0  0  0  0  0
    2.6172   -0.6063   -0.0014 C   0  0  0  0  0  0  0  0  0  0  0  0
    2.0776    1.7488   -0.0029 C   0  0  0  0  0  0  0  0  0  0  0  0
    3.0271    0.7271   -0.0050 C   0  0  0  0  0  0  0  0  0  0  0  0
  1 10  1  0
  2  9  1  0
  3  9  1  0
  4  5  1  0
  4  6  1  0
  5  9  1  0
  6  7  2  0
  6  8  1  0
  7 10  1  0
  8 11  2  0
 10 12  2  0
 11 12  1  0
M  END
>  <PUBCHEM_COMPOUND_CID>  (1) 
9510

>  <PUBCHEM_CONFORMER_RMSD>  (1) 
0.6

>  <PUBCHEM_CONFORMER_DIVERSEORDER>  (1) 
1
13
9
6
10
7
3
5
14
4
8
11
2
12

>  <PUBCHEM_MMFF94_PARTIAL_CHARGES>  (1) 
17
1 -0.18
10 0.18
11 -0.15
12 -0.15
15 0.4
17 0.15
18 0.15
19 0.15
2 -0.34
20 0.15
3 -0.34
4 -0.87
5 0.37
6 0.1
7 -0.15
8 -0.15
9 0.68

>  <PUBCHEM_EFFECTIVE_ROTOR_COUNT>  (1) 
3

>  <PUBCHEM_PHARMACOPHORE_FEATURES>  (1) 
3
1 4 cation
1 4 donor
6 6 7 8 10 11 12 rings

>  <PUBCHEM_HEAVY_ATOM_COUNT>  (1) 
12

>  <PUBCHEM_ATOM_DEF_STEREO_COUNT>  (1) 
0

>  <PUBCHEM_ATOM_UDEF_STEREO_COUNT>  (1) 
0

>  <PUBCHEM_BOND_DEF_STEREO_COUNT>  (1) 
0

>  <PUBCHEM_BOND_UDEF_STEREO_COUNT>  (1) 
0

>  <PUBCHEM_ISOTOPIC_ATOM_COUNT>  (1) 
0

>  <PUBCHEM_COMPONENT_COUNT>  (1) 
1

>  <PUBCHEM_CACTVS_TAUTO_COUNT>  (1) 
1

>  <PUBCHEM_CONFORMER_ID>  (1) 
0000252600000001

>  <PUBCHEM_MMFF94_ENERGY>  (1) 
30.0614

>  <PUBCHEM_FEATURE_SELFOVERLAP>  (1) 
15.223

>  <PUBCHEM_SHAPE_FINGERPRINT>  (1) 
10219947 1 18343864402970805174
11471102 20 18409444786820657532
11769659 78 18343578516930747710
12032990 46 18337114462612673546
12932764 1 17917991706703942369
13296908 3 18040436607301855715
14144814 61 18413109463418416545
14251717 144 18411411821723349846
14252887 29 18130227047996218858
14325111 11 18410575102059453289
14576447 43 18128806624284342831
15442244 35 18341052895904253984
15477762 27 18410854386565692500
15501101 241 18407759239975081508
18186145 218 17603585209905739545
19422 9 18131070450291150159
200 152 18130495384546203813
20201158 50 18334295357405818171
20279233 1 17749103422337487067
20339313 130 18342745078912041786
20645477 70 18410847746625738191
20871998 22 18056484950483442662
21501925 9 18339070515468307682
23402655 69 18412541007486032325
57812782 119 18186796993700205169
581208 293 18339072791484703572
7364860 26 18343300401267614368

>  <PUBCHEM_SHAPE_MULTIPOLES>  (1) 
229.3
6.99
1.65
0.73
4.35
0.2
0
-2.75
0.02
-1.6
0
0.44
-0.11
0

>  <PUBCHEM_SHAPE_SELFOVERLAP>  (1) 
460.611

>  <PUBCHEM_SHAPE_VOLUME>  (1) 
135.5

>  <PUBCHEM_COORDINATE_TYPE>  (1) 
2
5
10

$$$$
