9511
     RDKit          3D

 13 12  0  0  1  0  0  0  0  0999 V2000
    5.2608   -0.2315   -0.2786 F   0  0  0  0  0  0  0  0  0  0  0  0
    1.7305    0.0142   -0.4136 O   0  0  0  0  0  0  0  0  0  0  0  0
    3.1097   -1.0702    1.0890 O   0  0  0  0  0  0  0  0  0  0  0  0
   -0.6956    0.1046   -0.3638 C   0  0  0  0  0  0  0  0  0  0  0  0
   -1.9246   -0.5521    0.2997 C   0  0  0  0  0  0  0  0  0  0  0  0
   -0.7512    1.6481   -0.4094 C   0  0  0  0  0  0  0  0  0  0  0  0
   -3.2488   -0.2161   -0.3940 C   0  0  0  0  0  0  0  0  0  0  0  0
    0.5851   -0.4152    0.3096 C   0  0  0  0  0  0  0  0  0  0  0  0
   -4.4631   -0.8586    0.2820 C   0  0  0  0  0  0  0  0  0  0  0  0
   -0.8046    2.3342    0.9487 C   0  0  0  0  0  0  0  0  0  0  0  0
   -5.7835   -0.5080   -0.3864 C   0  0  0  0  0  0  0  0  0  0  0  0
    2.9379   -0.3865    0.0888 C   0  0  0  0  0  0  0  0  0  0  0  0
    4.0473    0.1370   -0.7719 C   0  0  0  0  0  0  0  0  0  0  0  0
  1 13  1  0
  2  8  1  0
  2 12  1  0
  3 12  2  0
  4  5  1  0
  4  6  1  0
  4  8  1  0
  5  7  1  0
  6 10  1  0
  7  9  1  0
  9 11  1  0
 12 13  1  0
M  END
>  <PUBCHEM_COMPOUND_CID>  (1) 
9511

>  <PUBCHEM_CONFORMER_RMSD>  (1) 
0.8

>  <PUBCHEM_CONFORMER_DIVERSEORDER>  (1) 
1
243
93
183
250
280
297
94
15
124
217
2
118
281
52
246
298
76
60
125
170
205
269
251
141
101
95
81
220
199
202
145
201
262
153
260
241
150
274
263
146
284
278
134
63
187
267
121
90
148
223
18
105
46
36
127
32
252
116
197
264
238
64
272
283
42
172
89
288
142
249
209
48
256
75
69
54
131
229
179
109
38
175
168
78
147
97
137
299
295
12
198
73
259
10
99
171
225
248
273
237
214
163
221
47
41
39
135
149
277
279
136
87
120
216
208
293
37
164
20
222
43
232
74
230
159
21
268
114
11
224
138
291
242
218
24
257
203
292
40
275
289
290
233
255
66
50
296
152
231
181
144
227
55
67
212
253
157
59
26
271
14
270
265
156
185
13
29
287
200
84
108
83
234
17
57
266
128
115
3
56
7
62
180
107
5
61
92
85
192
244
195
286
4
207
113
140
154
27
106
294
22
151
102
126
133
211
176
51
204
167
103
219
53
226
261
129
158
177
213
143
184
194
215
228
169
77
190
111
258
122
96
239
9
112
193
6
178
33
130
100
285
240
210
25
71
31
165
28
132
16
189
166
117
123
162
65
188
186
282
191
110
44
161
160
8
206
182
45
19
247
68
91
236
276
139
58
49
104
235
72
88
34
30
82
119
245
80
23
155
254
196
86
35
98
70
174
173
79

>  <PUBCHEM_MMFF94_PARTIAL_CHARGES>  (1) 
6
1 -0.34
12 0.66
13 0.4
2 -0.43
3 -0.57
8 0.28

>  <PUBCHEM_EFFECTIVE_ROTOR_COUNT>  (1) 
8

>  <PUBCHEM_PHARMACOPHORE_FEATURES>  (1) 
4
1 10 hydrophobe
1 11 hydrophobe
1 3 acceptor
5 4 5 6 7 9 hydrophobe

>  <PUBCHEM_HEAVY_ATOM_COUNT>  (1) 
13

>  <PUBCHEM_ATOM_DEF_STEREO_COUNT>  (1) 
0

>  <PUBCHEM_ATOM_UDEF_STEREO_COUNT>  (1) 
1

>  <PUBCHEM_BOND_DEF_STEREO_COUNT>  (1) 
0

>  <PUBCHEM_BOND_UDEF_STEREO_COUNT>  (1) 
0

>  <PUBCHEM_ISOTOPIC_ATOM_COUNT>  (1) 
0

>  <PUBCHEM_COMPONENT_COUNT>  (1) 
1

>  <PUBCHEM_CACTVS_TAUTO_COUNT>  (1) 
1

>  <PUBCHEM_CONFORMER_ID>  (1) 
0000252700000001

>  <PUBCHEM_MMFF94_ENERGY>  (1) 
7.8479

>  <PUBCHEM_FEATURE_SELFOVERLAP>  (1) 
20.299

>  <PUBCHEM_SHAPE_FINGERPRINT>  (1) 
10922049 32 9223235152411306753
11287383 113 15430043188151918463
114248 4 16008748026465676023
12119455 92 10159702378468406745
12815109 37 18408322198507660391
12932764 1 16773219696767622382
13533116 47 17822281358953572226
14123238 8 16370723742587704335
14252887 29 17989215840942437967
15048467 5 17240480304290610023
15242433 33 17967813859866176771
15342168 16 15696568152551714168
15501527 24 18113905991439252390
17834076 25 17385442132903824670
18186145 218 12179846151690624271
18222031 100 18060131068310977831
187816 3 18113058242151692155
200 152 18259703393545339558
20279233 1 13768214865680867072
20645477 56 8358251536498600190
20645477 70 16588576514297675402
20724930 69 11097854099215352225
20871999 31 17967524645822505805
22485316 2 18113334236934989651
23402539 116 18202561778882457023
23557571 272 18060146400933034372
3250762 1 17268931082286862079
366044 4 8214145148900495525
42788 4 17313103064258477231
4463277 17 18411702093141242189
5374978 207 18409721872699403616
68521 5 18411983525237156965
69090 78 8430314619235746081

>  <PUBCHEM_SHAPE_MULTIPOLES>  (1) 
248.52
10.59
1.48
0.87
1.78
1.28
-0.08
-4.33
1.44
0.47
-0.39
-0.24
0.07
-0.3

>  <PUBCHEM_SHAPE_SELFOVERLAP>  (1) 
456.798

>  <PUBCHEM_SHAPE_VOLUME>  (1) 
157.2

>  <PUBCHEM_COORDINATE_TYPE>  (1) 
2
5
10

$$$$
