9513
     RDKit          3D

 14 15  0  0  0  0  0  0  0  0999 V2000
    1.8608   -0.3575    0.1292 N   0  0  0  0  0  0  0  0  0  0  0  0
    2.2829    1.0483    0.2050 C   0  0  0  0  0  0  0  0  0  0  0  0
    2.7201   -1.1215   -0.7861 C   0  0  0  0  0  0  0  0  0  0  0  0
    3.7303    1.1649    0.6856 C   0  0  0  0  0  0  0  0  0  0  0  0
    4.1816   -1.0758   -0.3380 C   0  0  0  0  0  0  0  0  0  0  0  0
    4.6748    0.3601   -0.1997 C   0  0  0  0  0  0  0  0  0  0  0  0
    0.4614   -0.4499   -0.2860 C   0  0  0  0  0  0  0  0  0  0  0  0
   -0.4606    0.2291    0.7297 C   0  0  0  0  0  0  0  0  0  0  0  0
   -1.9055    0.1276    0.3384 C   0  0  0  0  0  0  0  0  0  0  0  0
   -2.4765    1.1195   -0.4512 C   0  0  0  0  0  0  0  0  0  0  0  0
   -2.6611   -0.9575    0.7691 C   0  0  0  0  0  0  0  0  0  0  0  0
   -3.8199    1.0251   -0.8147 C   0  0  0  0  0  0  0  0  0  0  0  0
   -4.0044   -1.0518    0.4053 C   0  0  0  0  0  0  0  0  0  0  0  0
   -4.5838   -0.0606   -0.3866 C   0  0  0  0  0  0  0  0  0  0  0  0
  1  2  1  0
  1  3  1  0
  1  7  1  0
  2  4  1  0
  3  5  1  0
  4  6  1  0
  5  6  1  0
  7  8  1  0
  8  9  1  0
  9 10  2  0
  9 11  1  0
 10 12  1  0
 11 13  2  0
 12 14  2  0
 13 14  1  0
M  END
>  <PUBCHEM_COMPOUND_CID>  (1) 
9513

>  <PUBCHEM_CONFORMER_RMSD>  (1) 
0.6

>  <PUBCHEM_CONFORMER_DIVERSEORDER>  (1) 
1
4
8
2
10
5
7
3
11
6
9
16
18
17
15
14
13
12

>  <PUBCHEM_MMFF94_PARTIAL_CHARGES>  (1) 
16
1 -0.81
10 -0.15
11 -0.15
12 -0.15
13 -0.15
14 -0.15
2 0.27
29 0.15
3 0.27
30 0.15
31 0.15
32 0.15
33 0.15
7 0.27
8 0.14
9 -0.14

>  <PUBCHEM_EFFECTIVE_ROTOR_COUNT>  (1) 
4.2

>  <PUBCHEM_PHARMACOPHORE_FEATURES>  (1) 
3
1 1 cation
6 1 2 3 4 5 6 rings
6 9 10 11 12 13 14 rings

>  <PUBCHEM_HEAVY_ATOM_COUNT>  (1) 
14

>  <PUBCHEM_ATOM_DEF_STEREO_COUNT>  (1) 
0

>  <PUBCHEM_ATOM_UDEF_STEREO_COUNT>  (1) 
0

>  <PUBCHEM_BOND_DEF_STEREO_COUNT>  (1) 
0

>  <PUBCHEM_BOND_UDEF_STEREO_COUNT>  (1) 
0

>  <PUBCHEM_ISOTOPIC_ATOM_COUNT>  (1) 
0

>  <PUBCHEM_COMPONENT_COUNT>  (1) 
1

>  <PUBCHEM_CACTVS_TAUTO_COUNT>  (1) 
1

>  <PUBCHEM_CONFORMER_ID>  (1) 
0000252900000001

>  <PUBCHEM_MMFF94_ENERGY>  (1) 
19.7032

>  <PUBCHEM_FEATURE_SELFOVERLAP>  (1) 
15.223

>  <PUBCHEM_SHAPE_FINGERPRINT>  (1) 
10014705 185 17822289072466896061
10680689 15 18040723567052004307
11128504 68 15626223567686772680
114248 4 18410293618281577613
11471102 20 18201720656924528680
11615757 297 17418095433530838368
12236239 1 16056882433283792360
12500047 106 18040996245551038563
13296908 3 18410858754389183385
13760787 5 17131834269772196033
14123238 8 18412263947434638062
15242439 84 18408041788455907894
15375358 24 18409166618873916626
15961568 22 17604431933124326820
18186145 218 18408890602837302817
19026448 4 18408886239103063531
19489759 90 17822006514678151305
1986462 14 18187086139588603383
200 152 17775564230395519265
20279233 1 18408609157893922394
20281475 54 15267341803553229477
20645477 56 18113899313213720757
20645477 70 18202003183894388414
21065201 7 17894627045774107834
22485316 2 18410855460175939875
22646028 1 16774077362559675350
23402539 116 17968088746647534799
23402655 69 18201720643723226236
23557571 272 18334016073158042093
23559900 14 18334856087314802018
26918003 58 18272932721640316794
2838139 119 13913141510951194359
3268164 11 17676195884452626735
351380 180 18334290976597178836
4028521 119 18040989605995666845
4214541 1 18408604734267511509
474 4 16198719523925499192
5104073 3 18411419483823408075
5281201 14 18410579470141472428
573450 72 17240751887451339713
69090 78 18342737446386391887
77779 3 18410294704908329493
9709674 26 18336271214266652179
9971528 1 16515405153877914014

>  <PUBCHEM_SHAPE_MULTIPOLES>  (1) 
283.13
10.6
1.32
0.89
1.45
0.02
0
-0.15
-1.04
0.21
-0.04
-0.16
0
1.08

>  <PUBCHEM_SHAPE_SELFOVERLAP>  (1) 
578.527

>  <PUBCHEM_SHAPE_VOLUME>  (1) 
164.2

>  <PUBCHEM_COORDINATE_TYPE>  (1) 
2
5
10

$$$$
