9515
     RDKit          3D

 13 13  0  0  0  0  0  0  0  0999 V2000
   -5.0036   -0.1178   -0.0070 F   0  0  0  0  0  0  0  0  0  0  0  0
    3.8432   -0.6621   -0.0013 O   0  0  0  0  0  0  0  0  0  0  0  0
   -2.6455   -1.3027    0.0030 O   0  0  0  0  0  0  0  0  0  0  0  0
   -1.5155    0.7660    0.0011 N   0  0  0  0  0  0  0  0  0  0  0  0
   -0.1675    0.4070    0.0012 C   0  0  0  0  0  0  0  0  0  0  0  0
    0.8177    1.3946    0.0008 C   0  0  0  0  0  0  0  0  0  0  0  0
    0.1953   -0.9399    0.0008 C   0  0  0  0  0  0  0  0  0  0  0  0
    2.5282   -0.3116   -0.0008 C   0  0  0  0  0  0  0  0  0  0  0  0
    2.1655    1.0353   -0.0003 C   0  0  0  0  0  0  0  0  0  0  0  0
    1.5431   -1.2991   -0.0001 C   0  0  0  0  0  0  0  0  0  0  0  0
   -2.6356   -0.0762    0.0021 C   0  0  0  0  0  0  0  0  0  0  0  0
   -3.9232    0.7085    0.0016 C   0  0  0  0  0  0  0  0  0  0  0  0
    4.7980    0.3981   -0.0013 C   0  0  0  0  0  0  0  0  0  0  0  0
  1 12  1  0
  2  8  1  0
  2 13  1  0
  3 11  2  0
  4  5  1  0
  4 11  1  0
  5  6  2  0
  5  7  1  0
  6  9  1  0
  7 10  2  0
  8  9  2  0
  8 10  1  0
 11 12  1  0
M  END
>  <PUBCHEM_COMPOUND_CID>  (1) 
9515

>  <PUBCHEM_CONFORMER_RMSD>  (1) 
0.6

>  <PUBCHEM_CONFORMER_DIVERSEORDER>  (1) 
2
6
3
5
4
7
1

>  <PUBCHEM_MMFF94_PARTIAL_CHARGES>  (1) 
18
1 -0.34
10 -0.15
11 0.57
12 0.4
13 0.28
14 0.15
15 0.15
16 0.15
17 0.15
18 0.37
2 -0.36
3 -0.57
4 -0.55
5 0.12
6 -0.15
7 -0.15
8 0.08
9 -0.15

>  <PUBCHEM_EFFECTIVE_ROTOR_COUNT>  (1) 
4

>  <PUBCHEM_PHARMACOPHORE_FEATURES>  (1) 
4
1 2 acceptor
1 3 acceptor
1 4 donor
6 5 6 7 8 9 10 rings

>  <PUBCHEM_HEAVY_ATOM_COUNT>  (1) 
13

>  <PUBCHEM_ATOM_DEF_STEREO_COUNT>  (1) 
0

>  <PUBCHEM_ATOM_UDEF_STEREO_COUNT>  (1) 
0

>  <PUBCHEM_BOND_DEF_STEREO_COUNT>  (1) 
0

>  <PUBCHEM_BOND_UDEF_STEREO_COUNT>  (1) 
0

>  <PUBCHEM_ISOTOPIC_ATOM_COUNT>  (1) 
0

>  <PUBCHEM_COMPONENT_COUNT>  (1) 
1

>  <PUBCHEM_CACTVS_TAUTO_COUNT>  (1) 
2

>  <PUBCHEM_CONFORMER_ID>  (1) 
0000252B00000002

>  <PUBCHEM_MMFF94_ENERGY>  (1) 
41.031

>  <PUBCHEM_FEATURE_SELFOVERLAP>  (1) 
20.297

>  <PUBCHEM_SHAPE_FINGERPRINT>  (1) 
10219947 1 18343023276717948790
11062470 55 17749109976030325715
11132069 177 18411416219954295298
11401426 45 18411133649745054376
11471102 20 18410853256883883028
12032990 46 18412549786615216062
12932764 1 16877928469365434501
13380535 76 18410858754695625651
13690532 89 18409166580704345202
13922767 16 18343299284048557832
14252887 29 18060147509198009998
14325111 11 18410855507388808193
14911166 2 18410581686618585342
14993402 34 18342742922843714550
17834072 33 18060414759232441397
18522853 276 18342458136014968393
200 152 18131628989508207205
20201158 50 18409168792290885747
20279233 1 18187091645779024419
20645477 70 18341331076636085846
21267235 1 18411709780779196163
22485316 2 18335417963267871466
23402539 116 18410566292912516535
23402655 69 18341041922732259349
23559900 14 18413108373377593810
366044 4 18410011048521074042
8809292 202 18187932815039725539

>  <PUBCHEM_SHAPE_MULTIPOLES>  (1) 
243.54
8.43
1.3
0.59
2.92
0.06
0
-0.25
-0.01
-0.19
0
-0.05
-0.01
0

>  <PUBCHEM_SHAPE_SELFOVERLAP>  (1) 
500.623

>  <PUBCHEM_SHAPE_VOLUME>  (1) 
140.6

>  <PUBCHEM_COORDINATE_TYPE>  (1) 
2
5
10

$$$$
