9516
     RDKit          3D

 18 19  0  0  0  0  0  0  0  0999 V2000
   -5.3335    1.9580   -0.1067 F   0  0  0  0  0  0  0  0  0  0  0  0
    5.0305    0.1153   -0.1859 N   0  0  0  0  0  0  0  0  0  0  0  0
   -0.5069   -0.1028    0.6109 N   0  0  0  0  0  0  0  0  0  0  0  0
   -1.0939   -0.2324   -0.4890 N   0  0  0  0  0  0  0  0  0  0  0  0
    3.6354    0.0606    0.0146 C   0  0  0  0  0  0  0  0  0  0  0  0
    2.8827    1.2350    0.0058 C   0  0  0  0  0  0  0  0  0  0  0  0
    3.0083   -1.1681    0.2220 C   0  0  0  0  0  0  0  0  0  0  0  0
    0.8761   -0.0476    0.4116 C   0  0  0  0  0  0  0  0  0  0  0  0
    1.5032    1.1809    0.2044 C   0  0  0  0  0  0  0  0  0  0  0  0
    1.6286   -1.2222    0.4205 C   0  0  0  0  0  0  0  0  0  0  0  0
    5.7865    1.2801    0.2288 C   0  0  0  0  0  0  0  0  0  0  0  0
    5.7282   -0.9987   -0.7968 C   0  0  0  0  0  0  0  0  0  0  0  0
   -2.4838   -0.2880   -0.2883 C   0  0  0  0  0  0  0  0  0  0  0  0
   -3.2302    0.8862   -0.2975 C   0  0  0  0  0  0  0  0  0  0  0  0
   -3.1031   -1.5169   -0.0819 C   0  0  0  0  0  0  0  0  0  0  0  0
   -4.6098    0.8310   -0.0984 C   0  0  0  0  0  0  0  0  0  0  0  0
   -4.4825   -1.5721    0.1172 C   0  0  0  0  0  0  0  0  0  0  0  0
   -5.2359   -0.3983    0.1087 C   0  0  0  0  0  0  0  0  0  0  0  0
  1 16  1  0
  2  5  1  0
  2 11  1  0
  2 12  1  0
  3  4  2  0
  3  8  1  0
  4 13  1  0
  5  6  2  0
  5  7  1  0
  6  9  1  0
  7 10  2  0
  8  9  2  0
  8 10  1  0
 13 14  2  0
 13 15  1  0
 14 16  1  0
 15 17  2  0
 16 18  2  0
 17 18  1  0
M  END
>  <PUBCHEM_COMPOUND_CID>  (1) 
9516

>  <PUBCHEM_CONFORMER_RMSD>  (1) 
0.6

>  <PUBCHEM_CONFORMER_DIVERSEORDER>  (1) 
1
7
2
4
5
6
3

>  <PUBCHEM_MMFF94_PARTIAL_CHARGES>  (1) 
26
1 -0.19
10 -0.15
11 0.37
12 0.37
13 0.18
14 -0.15
15 -0.15
16 0.19
17 -0.15
18 -0.15
19 0.15
2 -0.84
20 0.15
21 0.15
22 0.15
29 0.15
3 -0.18
30 0.15
31 0.15
32 0.15
4 -0.18
5 0.1
6 -0.15
7 -0.15
8 0.18
9 -0.15

>  <PUBCHEM_EFFECTIVE_ROTOR_COUNT>  (1) 
3

>  <PUBCHEM_PHARMACOPHORE_FEATURES>  (1) 
3
1 2 cation
6 13 14 15 16 17 18 rings
6 5 6 7 8 9 10 rings

>  <PUBCHEM_HEAVY_ATOM_COUNT>  (1) 
18

>  <PUBCHEM_ATOM_DEF_STEREO_COUNT>  (1) 
0

>  <PUBCHEM_ATOM_UDEF_STEREO_COUNT>  (1) 
0

>  <PUBCHEM_BOND_DEF_STEREO_COUNT>  (1) 
0

>  <PUBCHEM_BOND_UDEF_STEREO_COUNT>  (1) 
0

>  <PUBCHEM_ISOTOPIC_ATOM_COUNT>  (1) 
0

>  <PUBCHEM_COMPONENT_COUNT>  (1) 
1

>  <PUBCHEM_CACTVS_TAUTO_COUNT>  (1) 
1

>  <PUBCHEM_CONFORMER_ID>  (1) 
0000252C00000001

>  <PUBCHEM_MMFF94_ENERGY>  (1) 
61.687

>  <PUBCHEM_FEATURE_SELFOVERLAP>  (1) 
15.223

>  <PUBCHEM_SHAPE_FINGERPRINT>  (1) 
10366900 7 16877939464592781169
11287383 113 18410856598779785506
11858739 19 17703514303269996854
12107183 9 17760362189351118337
12236239 1 18060422417090402394
13167823 11 18410290345712066639
13533116 47 14764356999157540798
13760787 19 18409163299154451139
14251731 8 18341895177777288117
14251764 18 18202005443500372835
14341114 176 18411142436968534637
15048467 5 18335419054015705725
15196674 1 18410009939997206610
15778101 99 18339082593227982985
15788980 27 17489867154540302196
17834072 33 18412544335932361350
17844677 252 18412270561742666449
18186145 218 18114170952008129803
200 152 18202283619103514643
20281389 69 18186799145653212141
20621476 66 18059020471684425801
20645477 56 18334574612665158469
20645477 70 18271810077846640510
20681677 155 18334856121468903291
21267235 1 18336552698428967571
21709351 56 18335414698966106997
220451 1 17603304834630768898
2297311 6 18412269436904015325
23402539 116 18333726931390076500
23402655 69 18410290306888231130
23536379 177 18410855460571247616
23559900 14 18342730849432637681
2916195 48 18340761658841517104
29717793 49 17489593325259551684
300161 21 18187356619459650671
3004659 81 18336549331412198766
3545911 37 18410292506417914857
4073 2 18041284360842646786
4214541 1 18410573985689573281
42788 4 18410855473023619686
4463277 17 18412263943667360256
4990 188 18342182167655745198
5104073 3 18334572434383361315
542803 24 16950565480060969150
59755656 520 16805325487506142843
633830 44 18188203307906126030
77779 3 18409448098556888787

>  <PUBCHEM_SHAPE_MULTIPOLES>  (1) 
348.21
14.56
1.62
0.7
2.01
0.11
-0.01
1.38
-1.37
-0.66
0
0.22
-0.06
0.45

>  <PUBCHEM_SHAPE_SELFOVERLAP>  (1) 
741.563

>  <PUBCHEM_SHAPE_VOLUME>  (1) 
196.2

>  <PUBCHEM_COORDINATE_TYPE>  (1) 
2
5
10

$$$$
