9527
     RDKit          3D

 13 12  0  0  0  0  0  0  0  0999 V2000
    3.3542    2.3386    0.4155 F   0  0  0  0  0  0  0  0  0  0  0  0
   -3.4767    1.9623   -0.9558 O   0  0  0  0  0  0  0  0  0  0  0  0
   -3.1531    1.3654    1.2111 O   0  0  0  0  0  0  0  0  0  0  0  0
   -0.2232   -1.6707    0.0640 C   0  0  0  0  0  0  0  0  0  0  0  0
    0.9963   -1.0926   -0.7091 C   0  0  0  0  0  0  0  0  0  0  0  0
   -1.2143   -0.5793    0.5556 C   0  0  0  0  0  0  0  0  0  0  0  0
    1.9353   -0.1960    0.1092 C   0  0  0  0  0  0  0  0  0  0  0  0
    0.2601   -2.4652    1.2961 C   0  0  0  0  0  0  0  0  0  0  0  0
   -0.9522   -2.6602   -0.8705 C   0  0  0  0  0  0  0  0  0  0  0  0
   -1.8679    0.2658   -0.5426 C   0  0  0  0  0  0  0  0  0  0  0  0
    3.1621    0.2710   -0.6831 C   0  0  0  0  0  0  0  0  0  0  0  0
    4.0612    1.2263    0.0839 C   0  0  0  0  0  0  0  0  0  0  0  0
   -2.8819    1.2344    0.0257 C   0  0  0  0  0  0  0  0  0  0  0  0
  1 12  1  0
  2 13  1  0
  3 13  2  0
  4  5  1  0
  4  6  1  0
  4  8  1  0
  4  9  1  0
  5  7  1  0
  6 10  1  0
  7 11  1  0
 10 13  1  0
 11 12  1  0
M  END
>  <PUBCHEM_COMPOUND_CID>  (1) 
9527

>  <PUBCHEM_CONFORMER_RMSD>  (1) 
0.8

>  <PUBCHEM_CONFORMER_DIVERSEORDER>  (1) 
1
42
43
16
44
39
51
45
50
4
25
38
2
10
37
35
46
26
11
6
22
47
41
28
34
40
7
29
48
49
32
27
21
5
14
52
13
30
31
17
23
33
19
12
36
15
20
3
8
9
24
18

>  <PUBCHEM_MMFF94_PARTIAL_CHARGES>  (1) 
7
1 -0.34
10 0.06
12 0.34
13 0.66
2 -0.65
3 -0.57
32 0.5

>  <PUBCHEM_EFFECTIVE_ROTOR_COUNT>  (1) 
7

>  <PUBCHEM_PHARMACOPHORE_FEATURES>  (1) 
6
1 2 acceptor
1 3 acceptor
3 2 3 13 anion
3 4 6 10 hydrophobe
3 4 8 9 hydrophobe
3 5 7 11 hydrophobe

>  <PUBCHEM_HEAVY_ATOM_COUNT>  (1) 
13

>  <PUBCHEM_ATOM_DEF_STEREO_COUNT>  (1) 
0

>  <PUBCHEM_ATOM_UDEF_STEREO_COUNT>  (1) 
0

>  <PUBCHEM_BOND_DEF_STEREO_COUNT>  (1) 
0

>  <PUBCHEM_BOND_UDEF_STEREO_COUNT>  (1) 
0

>  <PUBCHEM_ISOTOPIC_ATOM_COUNT>  (1) 
0

>  <PUBCHEM_COMPONENT_COUNT>  (1) 
1

>  <PUBCHEM_CACTVS_TAUTO_COUNT>  (1) 
1

>  <PUBCHEM_CONFORMER_ID>  (1) 
0000253700000001

>  <PUBCHEM_MMFF94_ENERGY>  (1) 
18.8531

>  <PUBCHEM_FEATURE_SELFOVERLAP>  (1) 
30.908

>  <PUBCHEM_SHAPE_FINGERPRINT>  (1) 
11127187 94 11383846930275475889
122479 349 18408609192559459884
13134695 92 17468464924551629967
14123255 52 18409163285968829941
15775835 57 18408323259100714932
170605 34 18339083666384088647
1741750 31 18343021112059816898
18186145 218 18272378520635491124
20281407 28 8070032155526313886
20605781 55 18410575084731689790
20645477 56 18270972361459713106
20653085 51 18271816713180586094
20671657 1 18266177232063314166
20671657 53 13110956496698709922
21499 59 18341046320514759957
21524375 3 18409168792153774646
22096605 113 18190453858121783029
22182937 141 18270127927554771928
23382010 3 17917699210751174031
23500284 214 18411990186530589880
25 1 18271815575024496792
305870 269 18186799136846869842
43658 37 18338787945022092717
8050 44 18262801748751509565
81228 2 17972888230492704730

>  <PUBCHEM_SHAPE_MULTIPOLES>  (1) 
248.52
6.27
2.92
1.08
3.11
0.81
-0.12
-6.73
0.11
-0.7
-0.17
-0.37
0.27
0.13

>  <PUBCHEM_SHAPE_SELFOVERLAP>  (1) 
462.658

>  <PUBCHEM_SHAPE_VOLUME>  (1) 
156.8

>  <PUBCHEM_COORDINATE_TYPE>  (1) 
2
5
10

$$$$
