9530
     RDKit          3D

 14 13  0  0  0  0  0  0  0  0999 V2000
   -6.1577   -1.1228   -0.6991 F   0  0  0  0  0  0  0  0  0  0  0  0
    0.3763    1.5605   -0.1840 O   0  0  0  0  0  0  0  0  0  0  0  0
    3.9290   -0.6710    0.0360 O   0  0  0  0  0  0  0  0  0  0  0  0
    3.0333    1.4405   -0.1958 O   0  0  0  0  0  0  0  0  0  0  0  0
   -2.2128    0.4802    0.0907 C   0  0  0  0  0  0  0  0  0  0  0  0
   -3.5128   -0.3196    0.2307 C   0  0  0  0  0  0  0  0  0  0  0  0
   -0.9726   -0.4120    0.1507 C   0  0  0  0  0  0  0  0  0  0  0  0
   -4.7687    0.5557    0.1794 C   0  0  0  0  0  0  0  0  0  0  0  0
    0.3404    0.3483    0.0203 C   0  0  0  0  0  0  0  0  0  0  0  0
   -6.0640   -0.2268    0.3186 C   0  0  0  0  0  0  0  0  0  0  0  0
    1.5963   -0.5012    0.0861 C   0  0  0  0  0  0  0  0  0  0  0  0
    2.9072    0.2325   -0.0537 C   0  0  0  0  0  0  0  0  0  0  0  0
    5.2479   -0.1212   -0.0475 C   0  0  0  0  0  0  0  0  0  0  0  0
    6.2580   -1.2430    0.0676 C   0  0  0  0  0  0  0  0  0  0  0  0
  1 10  1  0
  2  9  2  0
  3 12  1  0
  3 13  1  0
  4 12  2  0
  5  6  1  0
  5  7  1  0
  6  8  1  0
  7  9  1  0
  8 10  1  0
  9 11  1  0
 11 12  1  0
 13 14  1  0
M  END
>  <PUBCHEM_COMPOUND_CID>  (1) 
9530

>  <PUBCHEM_CONFORMER_RMSD>  (1) 
0.8

>  <PUBCHEM_CONFORMER_DIVERSEORDER>  (1) 
1
184
196
59
303
218
193
21
113
73
305
71
228
189
183
270
146
6
288
216
199
35
223
118
44
15
313
238
121
30
210
250
28
87
308
296
49
131
19
77
240
262
224
79
116
261
275
7
253
98
47
52
178
128
265
27
29
136
80
203
254
214
315
300
23
319
89
106
10
212
95
142
309
320
12
43
306
122
108
276
34
104
173
209
207
2
158
33
175
317
177
284
316
235
22
129
167
181
170
266
267
201
289
169
40
9
68
179
3
24
102
252
290
97
264
117
205
83
280
41
150
307
301
67
222
198
16
53
285
281
25
230
140
180
62
208
233
152
176
76
239
314
310
143
225
26
74
78
263
82
81
66
105
133
268
50
4
244
55
323
111
282
188
36
103
5
48
247
322
42
86
148
84
213
153
291
58
93
160
57
18
130
191
64
56
185
312
234
8
163
135
232
144
91
164
297
219
249
20
155
151
237
126
257
75
14
202
299
226
123
190
92
147
256
139
311
31
141
72
162
134
51
45
260
277
124
99
127
236
294
32
166
156
248
96
195
13
11
63
101
194
70
318
145
46
154
231
197
200
88
119
243
298
17
286
192
269
65
100
61
157
229
165
295
255
168
220
304
278
60
39
69
287
321
217
242
115
90
241
174
114
159
120
85
204
38
132
125
137
149
273
112
227
271
245
274
37
246
293
186
259
110
171
251
172
283
161
272
54
292
211
187
302
107
94
279
258
138
109
221
206
182
215

>  <PUBCHEM_MMFF94_PARTIAL_CHARGES>  (1) 
10
1 -0.34
10 0.34
11 0.12
12 0.66
13 0.28
2 -0.57
3 -0.43
4 -0.57
7 0.06
9 0.45

>  <PUBCHEM_EFFECTIVE_ROTOR_COUNT>  (1) 
9

>  <PUBCHEM_PHARMACOPHORE_FEATURES>  (1) 
4
1 11 anion
1 2 acceptor
1 4 acceptor
4 5 6 7 8 hydrophobe

>  <PUBCHEM_HEAVY_ATOM_COUNT>  (1) 
14

>  <PUBCHEM_ATOM_DEF_STEREO_COUNT>  (1) 
0

>  <PUBCHEM_ATOM_UDEF_STEREO_COUNT>  (1) 
0

>  <PUBCHEM_BOND_DEF_STEREO_COUNT>  (1) 
0

>  <PUBCHEM_BOND_UDEF_STEREO_COUNT>  (1) 
0

>  <PUBCHEM_ISOTOPIC_ATOM_COUNT>  (1) 
0

>  <PUBCHEM_COMPONENT_COUNT>  (1) 
1

>  <PUBCHEM_CACTVS_TAUTO_COUNT>  (1) 
5

>  <PUBCHEM_CONFORMER_ID>  (1) 
0000253A00000001

>  <PUBCHEM_MMFF94_ENERGY>  (1) 
5.9638

>  <PUBCHEM_FEATURE_SELFOVERLAP>  (1) 
20.306

>  <PUBCHEM_SHAPE_FINGERPRINT>  (1) 
12091667 2 18259988159047247769
12236239 1 18202566176533296585
12714333 28 11241972581209338270
13533116 47 14189304712374351854
13862211 1 18410573980898922243
1420 363 18114187436414501875
14251764 18 18341613728855302312
14251764 46 17632857516614734543
15048467 5 8502654805200337927
15242439 84 17313106366887698945
17834072 33 18343021129403177373
17834072 8 17603304855878680371
17834076 25 18410294704903041739
187816 3 16370730313824389704
200 152 18272369767734767513
20621476 8 18187364282129751725
20645477 70 18410576154242265790
20767249 13 18341895190625240777
21130983 4 10519980478765496306
21267235 1 18409174298259383755
23218964 4 18261111855034480739
23402539 116 18273493460239565933
23557571 272 16877940499463433703
23559900 14 18041282178666820817
42788 4 18410575080368176648
4340502 62 15195568996307378196
4463277 17 18408042901253617452
8209 1 18410575080373399363

>  <PUBCHEM_SHAPE_MULTIPOLES>  (1) 
263.23
16.05
1.15
0.63
4.4
0.19
0
-5.57
0.35
-0.51
0.08
0.23
-0.04
-0.36

>  <PUBCHEM_SHAPE_SELFOVERLAP>  (1) 
491.011

>  <PUBCHEM_SHAPE_VOLUME>  (1) 
163.8

>  <PUBCHEM_COORDINATE_TYPE>  (1) 
2
5
10

$$$$
