9543
     RDKit          3D

 12 11  0  0  0  0  0  0  0  0999 V2000
    7.1804   -0.6555    0.1774 Br  0  0  0  0  0  0  0  0  0  0  0  0
   -5.8911   -1.1649   -0.4791 F   0  0  0  0  0  0  0  0  0  0  0  0
    0.5120    0.5617   -0.1008 C   0  0  0  0  0  0  0  0  0  0  0  0
   -0.7994   -0.1683    0.2080 C   0  0  0  0  0  0  0  0  0  0  0  0
    1.7551   -0.3058    0.1102 C   0  0  0  0  0  0  0  0  0  0  0  0
   -2.0477    0.6709   -0.0737 C   0  0  0  0  0  0  0  0  0  0  0  0
    3.0670    0.4257   -0.1962 C   0  0  0  0  0  0  0  0  0  0  0  0
   -3.3228   -0.0975    0.2819 C   0  0  0  0  0  0  0  0  0  0  0  0
    4.3510   -0.3709    0.0531 C   0  0  0  0  0  0  0  0  0  0  0  0
   -4.5737    0.7262   -0.0290 C   0  0  0  0  0  0  0  0  0  0  0  0
    5.6124    0.4234   -0.2414 C   0  0  0  0  0  0  0  0  0  0  0  0
   -5.8431   -0.0449    0.2897 C   0  0  0  0  0  0  0  0  0  0  0  0
  1 11  1  0
  2 12  1  0
  3  4  1  0
  3  5  1  0
  4  6  1  0
  5  7  1  0
  6  8  1  0
  7  9  1  0
  8 10  1  0
  9 11  1  0
 10 12  1  0
M  END
>  <PUBCHEM_COMPOUND_CID>  (1) 
9543

>  <PUBCHEM_CONFORMER_RMSD>  (1) 
0.8

>  <PUBCHEM_CONFORMER_DIVERSEORDER>  (1) 
1
79
58
77
17
236
243
217
164
109
274
3
21
441
449
15
280
353
294
73
381
215
50
115
290
44
24
64
4
43
172
240
281
111
175
191
446
238
192
197
46
208
47
403
335
369
145
393
32
116
82
287
163
438
176
52
349
126
328
181
29
39
399
265
69
342
146
148
350
28
410
170
268
110
22
121
379
169
9
18
34
150
196
327
35
97
291
71
186
311
365
351
322
131
147
53
315
188
130
211
258
16
392
278
62
210
382
72
283
112
61
436
198
313
94
389
201
295
247
319
204
103
135
289
81
453
199
117
448
180
219
331
354
184
66
205
223
269
297
25
33
317
435
27
106
36
153
286
416
372
90
312
244
212
88
235
239
241
13
451
266
54
40
343
296
452
136
119
318
304
338
391
245
252
14
387
5
407
168
443
298
337
388
149
442
432
356
425
118
246
218
209
10
151
45
390
31
20
74
348
124
213
8
361
320
158
384
421
42
423
326
230
84
264
362
433
277
75
30
93
360
394
87
229
108
333
12
7
138
430
132
385
233
214
380
308
203
363
78
143
134
352
202
222
133
83
418
450
182
253
412
371
386
220
224
19
200
285
267
161
120
284
96
56
11
206
406
260
65
216
165
98
59
166
125
67
228
306
378
330
107
364
431
323
139
408
156
367
178
114
189
374
80
105
157
424
187
401
262
339
445
142
104
225
2
415
358
437
324
85
160
102
292
249
60
429
122
346
310
288
336
127
255
174
68
400
113
251
95
314
141
128
370
26
23
167
404
270
92
272
321
307
227
41
439
250
334
422
428
395
299
91
257
402
300
193
99
440
194
305
221
38
48
183
190
177
366
263
357
254
427
226
51
49
237
162
373
302
86
447
171
271
405
185
275
279
434
282
316
37
76
129
375
100
332
329
341
273
234
101
340
409
89
293
63
396
155
137
344
57
232
159
377
398
140
411
444
173
123
154
248
6
301
276
242
144
309
345
419
70
325
359
376
195
179
261
231
256
55
207
355
347
383
397
259
417
368
420
303
413
426
152
414

>  <PUBCHEM_MMFF94_PARTIAL_CHARGES>  (1) 
4
1 -0.23
11 0.23
12 0.34
2 -0.34

>  <PUBCHEM_EFFECTIVE_ROTOR_COUNT>  (1) 
9

>  <PUBCHEM_PHARMACOPHORE_FEATURES>  (1) 
1
1 1 hydrophobe

>  <PUBCHEM_HEAVY_ATOM_COUNT>  (1) 
12

>  <PUBCHEM_ATOM_DEF_STEREO_COUNT>  (1) 
0

>  <PUBCHEM_ATOM_UDEF_STEREO_COUNT>  (1) 
0

>  <PUBCHEM_BOND_DEF_STEREO_COUNT>  (1) 
0

>  <PUBCHEM_BOND_UDEF_STEREO_COUNT>  (1) 
0

>  <PUBCHEM_ISOTOPIC_ATOM_COUNT>  (1) 
0

>  <PUBCHEM_COMPONENT_COUNT>  (1) 
1

>  <PUBCHEM_CACTVS_TAUTO_COUNT>  (1) 
1

>  <PUBCHEM_CONFORMER_ID>  (1) 
0000254700000001

>  <PUBCHEM_MMFF94_ENERGY>  (1) 
-0.3396

>  <PUBCHEM_FEATURE_SELFOVERLAP>  (1) 
5.074

>  <PUBCHEM_SHAPE_FINGERPRINT>  (1) 
12091667 2 18040999531807408473
13533116 47 16878214274249565584
14123238 8 18187083953276234793
1420 363 16702306758273350524
14251718 22 18413389838788501793
14251764 18 18333449846729772304
14251764 46 18411418405797171814
14729087 3 7997973457381487390
17834072 33 18341613754124115165
17834072 8 15864072074337206738
17834076 25 18412545405674558656
20621476 38 18340206272884932774
20621476 8 17386003923289844709
20645477 70 18336828568452660614
20767249 13 18335422365440538248
20767249 213 9367342635225864002
21130983 4 11743834777347222914
23035841 295 18341895190541065562
23402539 116 18409445882396092253
23521765 1 18341895186145728592
33532 11 18339642236278515734
42788 4 18335421261897771724
57583515 80 17312822671565948337
8209 1 17967533471584302461

>  <PUBCHEM_SHAPE_MULTIPOLES>  (1) 
245.62
19.19
0.9
0.66
6.11
0.05
-0.01
3.77
0.17
-0.2
0.05
-0.01
0.02
-0.34

>  <PUBCHEM_SHAPE_SELFOVERLAP>  (1) 
423.929

>  <PUBCHEM_SHAPE_VOLUME>  (1) 
164.1

>  <PUBCHEM_COORDINATE_TYPE>  (1) 
2
5
10

$$$$
