9561
     RDKit          3D

  8  7  0  0  1  0  0  0  0  0999 V2000
   -0.7250   -1.8864   -0.0786 Cl  0  0  0  0  0  0  0  0  0  0  0  0
   -3.0659    0.3981    0.1613 Cl  0  0  0  0  0  0  0  0  0  0  0  0
    1.9024   -0.7170    0.6117 F   0  0  0  0  0  0  0  0  0  0  0  0
    1.3790    1.3940    0.4473 F   0  0  0  0  0  0  0  0  0  0  0  0
    1.2394    0.0880   -1.2982 F   0  0  0  0  0  0  0  0  0  0  0  0
   -0.3935   -0.1914    0.3983 C   0  0  0  0  0  0  0  0  0  0  0  0
    1.0408    0.1529    0.0371 C   0  0  0  0  0  0  0  0  0  0  0  0
   -1.3772    0.7618   -0.2790 C   0  0  0  0  0  0  0  0  0  0  0  0
  1  6  1  0
  2  8  1  0
  3  7  1  0
  4  7  1  0
  5  7  1  0
  6  7  1  0
  6  8  1  0
M  END
>  <PUBCHEM_COMPOUND_CID>  (1) 
9561

>  <PUBCHEM_CONFORMER_RMSD>  (1) 
0.4

>  <PUBCHEM_CONFORMER_DIVERSEORDER>  (1) 
1
3
6
5
2
4

>  <PUBCHEM_MMFF94_PARTIAL_CHARGES>  (1) 
8
1 -0.29
2 -0.29
3 -0.34
4 -0.34
5 -0.34
6 0.29
7 1.02
8 0.29

>  <PUBCHEM_EFFECTIVE_ROTOR_COUNT>  (1) 
2

>  <PUBCHEM_PHARMACOPHORE_FEATURES>  (1) 
0

>  <PUBCHEM_HEAVY_ATOM_COUNT>  (1) 
8

>  <PUBCHEM_ATOM_DEF_STEREO_COUNT>  (1) 
0

>  <PUBCHEM_ATOM_UDEF_STEREO_COUNT>  (1) 
1

>  <PUBCHEM_BOND_DEF_STEREO_COUNT>  (1) 
0

>  <PUBCHEM_BOND_UDEF_STEREO_COUNT>  (1) 
0

>  <PUBCHEM_ISOTOPIC_ATOM_COUNT>  (1) 
0

>  <PUBCHEM_COMPONENT_COUNT>  (1) 
1

>  <PUBCHEM_CACTVS_TAUTO_COUNT>  (1) 
1

>  <PUBCHEM_CONFORMER_ID>  (1) 
0000255900000001

>  <PUBCHEM_MMFF94_ENERGY>  (1) 
7.6323

>  <PUBCHEM_FEATURE_SELFOVERLAP>  (1) 
0

>  <PUBCHEM_SHAPE_FINGERPRINT>  (1) 
20096714 4 18410008840617558153
21040471 1 18408325509864038059
24536 1 17345770683926686482
29004967 10 15697995241113700035
5084963 1 17676769773460936033

>  <PUBCHEM_SHAPE_MULTIPOLES>  (1) 
146.55
3.11
1.46
0.83
1.91
0.66
-0.16
-0.71
0.22
0.05
0.04
-0.22
-0.02
0

>  <PUBCHEM_SHAPE_SELFOVERLAP>  (1) 
259.299

>  <PUBCHEM_SHAPE_VOLUME>  (1) 
98.9

>  <PUBCHEM_COORDINATE_TYPE>  (1) 
2
5
10

$$$$
