9566
     RDKit          3D

 10  9  0  0  1  0  0  0  0  0999 V2000
    0.3498    2.1458    0.2915 Cl  0  0  0  0  0  0  0  0  0  0  0  0
    1.7294   -1.8587   -0.8462 Cl  0  0  0  0  0  0  0  0  0  0  0  0
    1.4993   -0.6226    1.7631 Cl  0  0  0  0  0  0  0  0  0  0  0  0
    3.2320    0.5599   -0.2659 Cl  0  0  0  0  0  0  0  0  0  0  0  0
   -3.1939   -0.5123    0.9406 F   0  0  0  0  0  0  0  0  0  0  0  0
   -0.7406   -0.1766   -0.2688 O   0  0  0  0  0  0  0  0  0  0  0  0
    0.4724    0.5450   -0.5115 C   0  0  0  0  0  0  0  0  0  0  0  0
   -1.8999    0.5196   -0.7070 C   0  0  0  0  0  0  0  0  0  0  0  0
    1.6695   -0.2758    0.0098 C   0  0  0  0  0  0  0  0  0  0  0  0
   -3.1180   -0.3242   -0.4056 C   0  0  0  0  0  0  0  0  0  0  0  0
  1  7  1  0
  2  9  1  0
  3  9  1  0
  4  9  1  0
  5 10  1  0
  6  7  1  0
  6  8  1  0
  7  9  1  0
  8 10  1  0
M  END
>  <PUBCHEM_COMPOUND_CID>  (1) 
9566

>  <PUBCHEM_CONFORMER_RMSD>  (1) 
0.6

>  <PUBCHEM_CONFORMER_DIVERSEORDER>  (1) 
1
3
4
2

>  <PUBCHEM_MMFF94_PARTIAL_CHARGES>  (1) 
10
1 -0.29
10 0.34
2 -0.29
3 -0.29
4 -0.29
5 -0.34
6 -0.56
7 0.57
8 0.28
9 0.87

>  <PUBCHEM_EFFECTIVE_ROTOR_COUNT>  (1) 
4

>  <PUBCHEM_PHARMACOPHORE_FEATURES>  (1) 
1
1 6 acceptor

>  <PUBCHEM_HEAVY_ATOM_COUNT>  (1) 
10

>  <PUBCHEM_ATOM_DEF_STEREO_COUNT>  (1) 
0

>  <PUBCHEM_ATOM_UDEF_STEREO_COUNT>  (1) 
1

>  <PUBCHEM_BOND_DEF_STEREO_COUNT>  (1) 
0

>  <PUBCHEM_BOND_UDEF_STEREO_COUNT>  (1) 
0

>  <PUBCHEM_ISOTOPIC_ATOM_COUNT>  (1) 
0

>  <PUBCHEM_COMPONENT_COUNT>  (1) 
1

>  <PUBCHEM_CACTVS_TAUTO_COUNT>  (1) 
1

>  <PUBCHEM_CONFORMER_ID>  (1) 
0000255E00000001

>  <PUBCHEM_MMFF94_ENERGY>  (1) 
14.7676

>  <PUBCHEM_FEATURE_SELFOVERLAP>  (1) 
5.074

>  <PUBCHEM_SHAPE_FINGERPRINT>  (1) 
10219947 1 18343862238312575836
10857977 72 18341879784429993321
12932764 1 18187352268831755901
14128692 85 16662038128485428498
14252887 29 18335434468985556171
20201158 50 18334576849783995879
20653091 64 18260266369163472441
20711985 344 17901945236239178549
23235685 24 18272082829285317262
23380061 451 17894910715647866265
23552333 60 17822282432273246568
23552423 10 18121219783789019302
29004967 10 18413105043749330364
3248919 1 18338221662110473341

>  <PUBCHEM_SHAPE_MULTIPOLES>  (1) 
200.13
4.75
1.69
1.21
3.03
0.37
-0.59
-0.83
0.02
-0.74
0.19
-0.32
-0.29
0.19

>  <PUBCHEM_SHAPE_SELFOVERLAP>  (1) 
337.953

>  <PUBCHEM_SHAPE_VOLUME>  (1) 
136.6

>  <PUBCHEM_COORDINATE_TYPE>  (1) 
2
5
10

$$$$
