9575
     RDKit          3D

 18 20  0  0  0  0  0  0  0  0999 V2000
   -5.6438    0.9000    0.0015 F   0  0  0  0  0  0  0  0  0  0  0  0
    4.2661    1.7565    0.0027 O   0  0  0  0  0  0  0  0  0  0  0  0
    3.8023   -0.5550    0.0000 N   0  0  0  0  0  0  0  0  0  0  0  0
   -0.7270    1.5982   -0.0012 C   0  0  0  0  0  0  0  0  0  0  0  0
    0.2873    0.4737   -0.0011 C   0  0  0  0  0  0  0  0  0  0  0  0
   -0.3642   -0.7801   -0.0008 C   0  0  0  0  0  0  0  0  0  0  0  0
   -2.0348    0.8343   -0.0010 C   0  0  0  0  0  0  0  0  0  0  0  0
   -1.7942   -0.5581   -0.0007 C   0  0  0  0  0  0  0  0  0  0  0  0
    1.6677    0.5713   -0.0006 C   0  0  0  0  0  0  0  0  0  0  0  0
    0.3700   -1.9544    0.0000 C   0  0  0  0  0  0  0  0  0  0  0  0
   -3.3206    1.3459   -0.0007 C   0  0  0  0  0  0  0  0  0  0  0  0
   -2.8498   -1.4544    0.0002 C   0  0  0  0  0  0  0  0  0  0  0  0
    2.4075   -0.6125    0.0002 C   0  0  0  0  0  0  0  0  0  0  0  0
    1.7653   -1.8628    0.0005 C   0  0  0  0  0  0  0  0  0  0  0  0
   -4.3845    0.4421    0.0004 C   0  0  0  0  0  0  0  0  0  0  0  0
   -4.1517   -0.9440    0.0011 C   0  0  0  0  0  0  0  0  0  0  0  0
    4.6205    0.5821   -0.0003 C   0  0  0  0  0  0  0  0  0  0  0  0
    6.0838    0.2172   -0.0002 C   0  0  0  0  0  0  0  0  0  0  0  0
  1 15  1  0
  2 17  2  0
  3 13  1  0
  3 17  1  0
  4  5  1  0
  4  7  1  0
  5  6  2  0
  5  9  1  0
  6  8  1  0
  6 10  1  0
  7  8  2  0
  7 11  1  0
  8 12  1  0
  9 13  2  0
 10 14  2  0
 11 15  2  0
 12 16  2  0
 13 14  1  0
 15 16  1  0
 17 18  1  0
M  END
>  <PUBCHEM_COMPOUND_CID>  (1) 
9575

>  <PUBCHEM_CONFORMER_RMSD>  (1) 
0.6

>  <PUBCHEM_CONFORMER_DIVERSEORDER>  (1) 
1
3
2
4

>  <PUBCHEM_MMFF94_PARTIAL_CHARGES>  (1) 
23
1 -0.19
10 -0.15
11 -0.15
12 -0.15
13 0.12
14 -0.15
15 0.19
16 -0.15
17 0.57
18 0.06
2 -0.57
21 0.15
22 0.15
23 0.15
24 0.15
25 0.15
26 0.15
27 0.37
3 -0.55
4 0.29
5 -0.14
7 -0.14
9 -0.15

>  <PUBCHEM_EFFECTIVE_ROTOR_COUNT>  (1) 
2.2

>  <PUBCHEM_PHARMACOPHORE_FEATURES>  (1) 
5
1 2 acceptor
1 3 donor
5 4 5 6 7 8 rings
6 5 6 9 10 13 14 rings
6 7 8 11 12 15 16 rings

>  <PUBCHEM_HEAVY_ATOM_COUNT>  (1) 
18

>  <PUBCHEM_ATOM_DEF_STEREO_COUNT>  (1) 
0

>  <PUBCHEM_ATOM_UDEF_STEREO_COUNT>  (1) 
0

>  <PUBCHEM_BOND_DEF_STEREO_COUNT>  (1) 
0

>  <PUBCHEM_BOND_UDEF_STEREO_COUNT>  (1) 
0

>  <PUBCHEM_ISOTOPIC_ATOM_COUNT>  (1) 
0

>  <PUBCHEM_COMPONENT_COUNT>  (1) 
1

>  <PUBCHEM_CACTVS_TAUTO_COUNT>  (1) 
2

>  <PUBCHEM_CONFORMER_ID>  (1) 
0000256700000001

>  <PUBCHEM_MMFF94_ENERGY>  (1) 
58.6422

>  <PUBCHEM_FEATURE_SELFOVERLAP>  (1) 
25.536

>  <PUBCHEM_SHAPE_FINGERPRINT>  (1) 
10411042 1 17546164563723833590
11132069 177 18407762533966733247
11401426 45 18410011043962089751
11578080 2 16880180114497345214
12236239 1 17894348895640043694
12390115 104 18057619672037177801
12403259 415 18409156723892109684
12403814 3 17748824103487236749
13214271 11 18410574007022225527
14787075 74 18340484568477457883
14790565 3 18411143566593042872
15048467 5 18272371941136094345
15196674 1 18410856555366239590
15375358 24 18335422357045970971
15536298 74 18341896247166447446
16945 1 18050286968761309127
19784866 170 18407761426070964139
200 152 18060134345434328055
20510252 161 18199751341178418497
20645477 70 18129945559448928062
21267235 1 18338804511016960247
23402539 116 18341888623636219158
23402655 69 18270955748768928973
23559900 14 18342176636049240582
296302 2 18410575067910666031
335352 9 18410573990095232862
34797466 226 16988569055861667436
34934 24 18410006611925332735
351380 180 18410855478009631528
3545911 37 18409731746364986629
4214541 1 18410855468728886245
4340502 62 16950287286629307251
474 4 17822299010984211100
474229 33 18410574006753258454
4990 188 17917437523152955102
5104073 3 18263366906349536459
542803 24 17458064876361339764
58051976 378 18341333314324122324
59755656 215 18340493275199457334
59755656 520 17676203593961738066
7364860 26 18268994177007212430
9709674 26 18410863143830578782

>  <PUBCHEM_SHAPE_MULTIPOLES>  (1) 
352.31
11.03
1.81
0.6
6.01
0.29
0
-3.05
0
-0.14
0
-0.01
0.01
0

>  <PUBCHEM_SHAPE_SELFOVERLAP>  (1) 
782.095

>  <PUBCHEM_SHAPE_VOLUME>  (1) 
190.1

>  <PUBCHEM_COORDINATE_TYPE>  (1) 
2
5
10

$$$$
