9593
     RDKit          3D

 12 12  0  0  0  0  0  0  0  0999 V2000
    4.7372   -0.5725   -0.0013 Br  0  0  0  0  0  0  0  0  0  0  0  0
   -4.6401   -0.2510   -0.0062 F   0  0  0  0  0  0  0  0  0  0  0  0
   -2.2385   -1.3449    0.0026 O   0  0  0  0  0  0  0  0  0  0  0  0
   -1.1884    0.7656    0.0009 N   0  0  0  0  0  0  0  0  0  0  0  0
    0.1724    0.4583    0.0004 C   0  0  0  0  0  0  0  0  0  0  0  0
    1.1186    1.4830    0.0000 C   0  0  0  0  0  0  0  0  0  0  0  0
    0.5865   -0.8737    0.0004 C   0  0  0  0  0  0  0  0  0  0  0  0
    2.4792    1.1757   -0.0006 C   0  0  0  0  0  0  0  0  0  0  0  0
    1.9472   -1.1811   -0.0001 C   0  0  0  0  0  0  0  0  0  0  0  0
    2.8936   -0.1563   -0.0006 C   0  0  0  0  0  0  0  0  0  0  0  0
   -2.2754   -0.1190    0.0020 C   0  0  0  0  0  0  0  0  0  0  0  0
   -3.5922    0.6159    0.0022 C   0  0  0  0  0  0  0  0  0  0  0  0
  1 10  1  0
  2 12  1  0
  3 11  2  0
  4  5  1  0
  4 11  1  0
  5  6  2  0
  5  7  1  0
  6  8  1  0
  7  9  2  0
  8 10  2  0
  9 10  1  0
 11 12  1  0
M  END
>  <PUBCHEM_COMPOUND_CID>  (1) 
9593

>  <PUBCHEM_CONFORMER_RMSD>  (1) 
0.6

>  <PUBCHEM_CONFORMER_DIVERSEORDER>  (1) 
1
3
2
4

>  <PUBCHEM_MMFF94_PARTIAL_CHARGES>  (1) 
17
1 -0.11
10 0.11
11 0.57
12 0.4
13 0.15
14 0.15
15 0.37
16 0.15
17 0.15
2 -0.34
3 -0.57
4 -0.55
5 0.12
6 -0.15
7 -0.15
8 -0.15
9 -0.15

>  <PUBCHEM_EFFECTIVE_ROTOR_COUNT>  (1) 
3

>  <PUBCHEM_PHARMACOPHORE_FEATURES>  (1) 
4
1 1 hydrophobe
1 3 acceptor
1 4 donor
6 5 6 7 8 9 10 rings

>  <PUBCHEM_HEAVY_ATOM_COUNT>  (1) 
12

>  <PUBCHEM_ATOM_DEF_STEREO_COUNT>  (1) 
0

>  <PUBCHEM_ATOM_UDEF_STEREO_COUNT>  (1) 
0

>  <PUBCHEM_BOND_DEF_STEREO_COUNT>  (1) 
0

>  <PUBCHEM_BOND_UDEF_STEREO_COUNT>  (1) 
0

>  <PUBCHEM_ISOTOPIC_ATOM_COUNT>  (1) 
0

>  <PUBCHEM_COMPONENT_COUNT>  (1) 
1

>  <PUBCHEM_CACTVS_TAUTO_COUNT>  (1) 
2

>  <PUBCHEM_CONFORMER_ID>  (1) 
0000257900000001

>  <PUBCHEM_MMFF94_ENERGY>  (1) 
27.5958

>  <PUBCHEM_FEATURE_SELFOVERLAP>  (1) 
20.297

>  <PUBCHEM_SHAPE_FINGERPRINT>  (1) 
10219947 1 18343866606489416558
11062470 55 18408886226244548459
11401426 45 18411415116363887058
11471102 20 18410571799176822788
12032990 46 18412548678661346750
12932764 1 17023451027829422793
13380535 76 18411702084293059111
13690532 89 18409448055770759114
14144814 61 18412546483632391233
14252887 29 17988651757281037798
14325111 11 18338517546517936480
14911166 2 18408892832521493302
18522853 276 18343301453123034928
200 152 18131628984975869575
20201158 50 18409731742075521474
20645477 70 18411982455389172502
20871998 22 18127979611689646782
21119208 17 18411136930809918167
21267235 1 18411428305755084203
23402539 116 17989480806402362453
23402655 69 18340480080806566893
8809292 202 18187932810523238130

>  <PUBCHEM_SHAPE_MULTIPOLES>  (1) 
234.77
7.99
1.35
0.61
2.51
0.11
0
-1.25
0.01
-0.35
0
-0.13
0
0

>  <PUBCHEM_SHAPE_SELFOVERLAP>  (1) 
469.685

>  <PUBCHEM_SHAPE_VOLUME>  (1) 
140.5

>  <PUBCHEM_COORDINATE_TYPE>  (1) 
2
5
10

$$$$
