9605
     RDKit          3D

  8  8  0  0  0  0  0  0  0  0999 V2000
   -3.3803    0.0002   -0.0020 I   0  0  0  0  0  0  0  0  0  0  0  0
    2.8268    0.0003   -0.0017 F   0  0  0  0  0  0  0  0  0  0  0  0
   -1.3026   -0.0003    0.0010 C   0  0  0  0  0  0  0  0  0  0  0  0
   -0.6051   -1.2081    0.0009 C   0  0  0  0  0  0  0  0  0  0  0  0
   -0.6054    1.2078    0.0009 C   0  0  0  0  0  0  0  0  0  0  0  0
    0.7898   -1.2079    0.0004 C   0  0  0  0  0  0  0  0  0  0  0  0
    0.7895    1.2080    0.0004 C   0  0  0  0  0  0  0  0  0  0  0  0
    1.4872    0.0001    0.0001 C   0  0  0  0  0  0  0  0  0  0  0  0
  1  3  1  0
  2  8  1  0
  3  4  2  0
  3  5  1  0
  4  6  1  0
  5  7  2  0
  6  8  2  0
  7  8  1  0
M  END
>  <PUBCHEM_COMPOUND_CID>  (1) 
9605

>  <PUBCHEM_CONFORMER_RMSD>  (1) 
0.4

>  <PUBCHEM_CONFORMER_DIVERSEORDER>  (1) 
1

>  <PUBCHEM_MMFF94_PARTIAL_CHARGES>  (1) 
12
1 -0.08
10 0.15
11 0.15
12 0.15
2 -0.19
3 0.08
4 -0.15
5 -0.15
6 -0.15
7 -0.15
8 0.19
9 0.15

>  <PUBCHEM_EFFECTIVE_ROTOR_COUNT>  (1) 
0

>  <PUBCHEM_PHARMACOPHORE_FEATURES>  (1) 
2
1 1 hydrophobe
6 3 4 5 6 7 8 rings

>  <PUBCHEM_HEAVY_ATOM_COUNT>  (1) 
8

>  <PUBCHEM_ATOM_DEF_STEREO_COUNT>  (1) 
0

>  <PUBCHEM_ATOM_UDEF_STEREO_COUNT>  (1) 
0

>  <PUBCHEM_BOND_DEF_STEREO_COUNT>  (1) 
0

>  <PUBCHEM_BOND_UDEF_STEREO_COUNT>  (1) 
0

>  <PUBCHEM_ISOTOPIC_ATOM_COUNT>  (1) 
0

>  <PUBCHEM_COMPONENT_COUNT>  (1) 
1

>  <PUBCHEM_CACTVS_TAUTO_COUNT>  (1) 
1

>  <PUBCHEM_CONFORMER_ID>  (1) 
0000258500000001

>  <PUBCHEM_MMFF94_ENERGY>  (1) 
14.7832

>  <PUBCHEM_FEATURE_SELFOVERLAP>  (1) 
10.148

>  <PUBCHEM_SHAPE_FINGERPRINT>  (1) 
14325111 11 18410855499252463297
16945 1 18410575089126838275
21040471 1 18194682798405441505
21293036 1 18408891753872778900
23235685 24 18410570699585943693
23402655 69 18267849598741183269
23552423 10 18045227037445643094
2748010 2 18122347049358214367
29004967 10 18334018276491725257
5084963 1 18343865528352496033

>  <PUBCHEM_SHAPE_MULTIPOLES>  (1) 
169.3
4.06
1.36
0.65
2.22
0
0
0
0
-0.15
0
0.17
0
0

>  <PUBCHEM_SHAPE_SELFOVERLAP>  (1) 
329.295

>  <PUBCHEM_SHAPE_VOLUME>  (1) 
105.5

>  <PUBCHEM_COORDINATE_TYPE>  (1) 
2
5
10

$$$$
