9609
     RDKit          3D

  5  4  0  0  0  0  0  0  0  0999 V2000
    0.0024    0.6554    0.0000 S   0  0  0  0  0  0  0  0  0  0  0  0
   -1.3718   -0.5280    0.0000 C   0  0  0  0  0  0  0  0  0  0  0  0
    1.3699   -0.5269    0.0000 C   0  0  0  0  0  0  0  0  0  0  0  0
   -2.7023    0.2004    0.0000 C   0  0  0  0  0  0  0  0  0  0  0  0
    2.7018    0.1990    0.0000 C   0  0  0  0  0  0  0  0  0  0  0  0
  1  2  1  0
  1  3  1  0
  2  4  1  0
  3  5  1  0
M  END
>  <PUBCHEM_COMPOUND_CID>  (1) 
9609

>  <PUBCHEM_CONFORMER_RMSD>  (1) 
0.4

>  <PUBCHEM_CONFORMER_DIVERSEORDER>  (1) 
1
5
4
3
2

>  <PUBCHEM_MMFF94_PARTIAL_CHARGES>  (1) 
3
1 -0.46
2 0.23
3 0.23

>  <PUBCHEM_EFFECTIVE_ROTOR_COUNT>  (1) 
2

>  <PUBCHEM_PHARMACOPHORE_FEATURES>  (1) 
2
1 4 hydrophobe
1 5 hydrophobe

>  <PUBCHEM_HEAVY_ATOM_COUNT>  (1) 
5

>  <PUBCHEM_ATOM_DEF_STEREO_COUNT>  (1) 
0

>  <PUBCHEM_ATOM_UDEF_STEREO_COUNT>  (1) 
0

>  <PUBCHEM_BOND_DEF_STEREO_COUNT>  (1) 
0

>  <PUBCHEM_BOND_UDEF_STEREO_COUNT>  (1) 
0

>  <PUBCHEM_ISOTOPIC_ATOM_COUNT>  (1) 
0

>  <PUBCHEM_COMPONENT_COUNT>  (1) 
1

>  <PUBCHEM_CACTVS_TAUTO_COUNT>  (1) 
1

>  <PUBCHEM_CONFORMER_ID>  (1) 
0000258900000001

>  <PUBCHEM_MMFF94_ENERGY>  (1) 
1.5213

>  <PUBCHEM_FEATURE_SELFOVERLAP>  (1) 
10.149

>  <PUBCHEM_SHAPE_FINGERPRINT>  (1) 
14390081 3 7925915863464696823
16714656 1 9007055764326319073
20096714 4 9367340435965309558
29004967 10 17967538968931464376
5460574 1 18410856555445055558

>  <PUBCHEM_SHAPE_MULTIPOLES>  (1) 
106.75
4.17
0.85
0.63
0
0.03
0
0.11
0
0
0
0
0.01
0

>  <PUBCHEM_SHAPE_SELFOVERLAP>  (1) 
163.93

>  <PUBCHEM_SHAPE_VOLUME>  (1) 
78.3

>  <PUBCHEM_COORDINATE_TYPE>  (1) 
2
5
10

$$$$
