9613
     RDKit          3D

  8  7  0  0  0  0  0  0  0  0999 V2000
   -3.5624    0.3790   -0.1972 F   0  0  0  0  0  0  0  0  0  0  0  0
    3.7718   -0.1473   -0.2250 O   0  0  0  0  0  0  0  0  0  0  0  0
    1.4872   -0.2874    0.3094 N   0  0  0  0  0  0  0  0  0  0  0  0
   -0.7566    0.6866    0.3151 C   0  0  0  0  0  0  0  0  0  0  0  0
   -1.4108   -0.5589   -0.2901 C   0  0  0  0  0  0  0  0  0  0  0  0
    0.6911    0.8593   -0.1308 C   0  0  0  0  0  0  0  0  0  0  0  0
   -2.8484   -0.7155    0.1769 C   0  0  0  0  0  0  0  0  0  0  0  0
    2.6281   -0.2159    0.0417 C   0  0  0  0  0  0  0  0  0  0  0  0
  1  7  1  0
  2  8  2  0
  3  6  1  0
  3  8  2  0
  4  5  1  0
  4  6  1  0
  5  7  1  0
M  END
>  <PUBCHEM_COMPOUND_CID>  (1) 
9613

>  <PUBCHEM_CONFORMER_RMSD>  (1) 
0.6

>  <PUBCHEM_CONFORMER_DIVERSEORDER>  (1) 
1
52
18
26
48
31
45
17
51
39
10
50
54
2
30
40
43
38
19
34
21
53
29
23
46
3
36
24
8
13
55
49
44
32
6
9
47
35
22
4
14
15
33
20
42
11
27
41
25
12
16
37
7
5
28

>  <PUBCHEM_MMFF94_PARTIAL_CHARGES>  (1) 
6
1 -0.34
2 -0.49
3 -0.55
6 0.25
7 0.34
8 0.79

>  <PUBCHEM_EFFECTIVE_ROTOR_COUNT>  (1) 
4

>  <PUBCHEM_PHARMACOPHORE_FEATURES>  (1) 
1
1 3 acceptor

>  <PUBCHEM_HEAVY_ATOM_COUNT>  (1) 
8

>  <PUBCHEM_ATOM_DEF_STEREO_COUNT>  (1) 
0

>  <PUBCHEM_ATOM_UDEF_STEREO_COUNT>  (1) 
0

>  <PUBCHEM_BOND_DEF_STEREO_COUNT>  (1) 
0

>  <PUBCHEM_BOND_UDEF_STEREO_COUNT>  (1) 
0

>  <PUBCHEM_ISOTOPIC_ATOM_COUNT>  (1) 
0

>  <PUBCHEM_COMPONENT_COUNT>  (1) 
1

>  <PUBCHEM_CACTVS_TAUTO_COUNT>  (1) 
1

>  <PUBCHEM_CONFORMER_ID>  (1) 
0000258D00000001

>  <PUBCHEM_MMFF94_ENERGY>  (1) 
1.9066

>  <PUBCHEM_FEATURE_SELFOVERLAP>  (1) 
5.074

>  <PUBCHEM_SHAPE_FINGERPRINT>  (1) 
11062470 55 18410011035203350060
12932764 1 16443613692555023153
14390081 3 8142094156037274087
15310529 11 16226033475375526451
21293036 1 16950285126239495218
5460574 1 9295291642193973882

>  <PUBCHEM_SHAPE_MULTIPOLES>  (1) 
146.51
5.93
0.89
0.63
0.83
0.08
0.01
-0.92
-0.32
-0.22
0
-0.03
0
0.01

>  <PUBCHEM_SHAPE_SELFOVERLAP>  (1) 
268.075

>  <PUBCHEM_SHAPE_VOLUME>  (1) 
92

>  <PUBCHEM_COORDINATE_TYPE>  (1) 
2
5
10

$$$$
