9618
     RDKit          3D

 14 13  0  0  0  0  0  0  0  0999 V2000
    8.0786    0.3347    0.0267 F   0  0  0  0  0  0  0  0  0  0  0  0
   -8.0887   -0.3412   -0.0463 F   0  0  0  0  0  0  0  0  0  0  0  0
    0.6604    0.4379   -0.0809 C   0  0  0  0  0  0  0  0  0  0  0  0
   -0.6398   -0.3729   -0.0501 C   0  0  0  0  0  0  0  0  0  0  0  0
    1.9181   -0.4329   -0.0339 C   0  0  0  0  0  0  0  0  0  0  0  0
   -1.9345    0.4451   -0.0054 C   0  0  0  0  0  0  0  0  0  0  0  0
    3.2164    0.3799   -0.0049 C   0  0  0  0  0  0  0  0  0  0  0  0
   -3.1984   -0.4167    0.0494 C   0  0  0  0  0  0  0  0  0  0  0  0
    4.4750   -0.4905    0.0185 C   0  0  0  0  0  0  0  0  0  0  0  0
   -4.4591    0.4517    0.0660 C   0  0  0  0  0  0  0  0  0  0  0  0
    5.7398    0.3661    0.0154 C   0  0  0  0  0  0  0  0  0  0  0  0
   -5.7530   -0.3621    0.0514 C   0  0  0  0  0  0  0  0  0  0  0  0
    6.9953   -0.4872    0.0026 C   0  0  0  0  0  0  0  0  0  0  0  0
   -7.0101    0.4881   -0.0086 C   0  0  0  0  0  0  0  0  0  0  0  0
  1 13  1  0
  2 14  1  0
  3  4  1  0
  3  5  1  0
  4  6  1  0
  5  7  1  0
  6  8  1  0
  7  9  1  0
  8 10  1  0
  9 11  1  0
 10 12  1  0
 11 13  1  0
 12 14  1  0
M  END
>  <PUBCHEM_COMPOUND_CID>  (1) 
9618

>  <PUBCHEM_CONFORMER_RMSD>  (1) 
1

>  <PUBCHEM_CONFORMER_DIVERSEORDER>  (1) 
1
128
53
9
40
141
110
2
13
95
185
7
34
181
55
165
32
43
52
10
154
28
6
184
33
26
21
16
39
179
12
147
100
129
4
99
31
133
35
176
85
158
56
3
151
27
93
171
144
38
54
91
84
102
174
70
152
47
65
82
5
72
121
134
69
11
89
46
90
20
167
58
98
115
60
59
114
136
48
113
66
73
120
126
180
101
92
78
169
80
116
143
67
24
88
61
76
45
182
8
83
105
108
17
49
74
36
97
104
41
64
173
130
63
94
164
109
68
140
96
135
119
25
183
155
111
77
50
132
44
18
14
51
149
103
107
145
112
148
163
122
162
15
117
131
81
168
177
62
153
29
37
160
118
161
166
42
170
159
106
86
178
22
138
75
23
124
156
30
139
123
19
142
137
175
87
127
57
79
146
125
172
150
71
157

>  <PUBCHEM_MMFF94_PARTIAL_CHARGES>  (1) 
4
1 -0.34
13 0.34
14 0.34
2 -0.34

>  <PUBCHEM_EFFECTIVE_ROTOR_COUNT>  (1) 
11

>  <PUBCHEM_PHARMACOPHORE_FEATURES>  (1) 
0

>  <PUBCHEM_HEAVY_ATOM_COUNT>  (1) 
14

>  <PUBCHEM_ATOM_DEF_STEREO_COUNT>  (1) 
0

>  <PUBCHEM_ATOM_UDEF_STEREO_COUNT>  (1) 
0

>  <PUBCHEM_BOND_DEF_STEREO_COUNT>  (1) 
0

>  <PUBCHEM_BOND_UDEF_STEREO_COUNT>  (1) 
0

>  <PUBCHEM_ISOTOPIC_ATOM_COUNT>  (1) 
0

>  <PUBCHEM_COMPONENT_COUNT>  (1) 
1

>  <PUBCHEM_CACTVS_TAUTO_COUNT>  (1) 
1

>  <PUBCHEM_CONFORMER_ID>  (1) 
0000259200000001

>  <PUBCHEM_MMFF94_ENERGY>  (1) 
-1.0322

>  <PUBCHEM_FEATURE_SELFOVERLAP>  (1) 
0

>  <PUBCHEM_SHAPE_FINGERPRINT>  (1) 
11315181 36 18202568397569355163
12091667 2 18408323285819961057
13533116 47 17531236224233654010
14123256 10 18410856555344828795
14251764 18 18410856542459940065
14251764 46 18410575084663098411
17834076 25 18410856559639802571
18006028 8 18343301465944905945
22224240 67 18413105074162598782
23402539 116 18273209815681761886
23521765 1 18341895190345678853
33684 2 18408602556507946491
42788 4 18410856560056592424
8209 1 18410573985156732397

>  <PUBCHEM_SHAPE_MULTIPOLES>  (1) 
273.57
24.48
0.78
0.6
0.27
0
0
0.09
0.21
0
0
0
0
0

>  <PUBCHEM_SHAPE_SELFOVERLAP>  (1) 
488.897

>  <PUBCHEM_SHAPE_VOLUME>  (1) 
177.1

>  <PUBCHEM_COORDINATE_TYPE>  (1) 
2
5
10

$$$$
