9650
     RDKit          3D

 19 20  0  0  0  0  0  0  0  0999 V2000
    0.2932   -1.6478   -0.9742 O   0  0  0  0  0  0  0  0  0  0  0  0
    3.5761    1.4024   -0.2734 O   0  0  0  0  0  0  0  0  0  0  0  0
   -0.7254    2.6253    0.6459 O   0  0  0  0  0  0  0  0  0  0  0  0
   -0.3675    0.3902   -0.0192 N   0  0  0  0  0  0  0  0  0  0  0  0
    1.3826    1.9896    0.0746 N   0  0  0  0  0  0  0  0  0  0  0  0
    1.9763   -0.3633    0.1760 C   0  0  0  0  0  0  0  0  0  0  0  0
    2.9717   -1.3168   -0.5050 C   0  0  0  0  0  0  0  0  0  0  0  0
    1.9947   -0.6285    1.6919 C   0  0  0  0  0  0  0  0  0  0  0  0
    0.5599   -0.6279   -0.3353 C   0  0  0  0  0  0  0  0  0  0  0  0
    2.4114    1.0716   -0.0603 C   0  0  0  0  0  0  0  0  0  0  0  0
    3.0547   -1.0442   -1.9907 C   0  0  0  0  0  0  0  0  0  0  0  0
    1.6012   -2.0567    1.9968 C   0  0  0  0  0  0  0  0  0  0  0  0
    0.0216    1.7262    0.2508 C   0  0  0  0  0  0  0  0  0  0  0  0
   -1.7764    0.0615   -0.0670 C   0  0  0  0  0  0  0  0  0  0  0  0
   -2.1879   -1.2367    0.2084 C   0  0  0  0  0  0  0  0  0  0  0  0
   -2.7010    1.0477   -0.3880 C   0  0  0  0  0  0  0  0  0  0  0  0
   -3.5456   -1.5535    0.1620 C   0  0  0  0  0  0  0  0  0  0  0  0
   -4.0586    0.7308   -0.4342 C   0  0  0  0  0  0  0  0  0  0  0  0
   -4.4809   -0.5699   -0.1591 C   0  0  0  0  0  0  0  0  0  0  0  0
  1  9  2  0
  2 10  2  0
  3 13  2  0
  4  9  1  0
  4 13  1  0
  4 14  1  0
  5 10  1  0
  5 13  1  0
  6  7  1  0
  6  8  1  0
  6  9  1  0
  6 10  1  0
  7 11  1  0
  8 12  1  0
 14 15  2  0
 14 16  1  0
 15 17  1  0
 16 18  2  0
 17 19  2  0
 18 19  1  0
M  END
>  <PUBCHEM_COMPOUND_CID>  (1) 
9650

>  <PUBCHEM_CONFORMER_RMSD>  (1) 
0.6

>  <PUBCHEM_CONFORMER_DIVERSEORDER>  (1) 
1
12
3
6
8
10
9
7
5
11
2
4

>  <PUBCHEM_MMFF94_PARTIAL_CHARGES>  (1) 
21
1 -0.57
10 0.57
13 0.69
14 0.12
15 -0.15
16 -0.15
17 -0.15
18 -0.15
19 -0.15
2 -0.57
3 -0.57
30 0.37
31 0.15
32 0.15
33 0.15
34 0.15
35 0.15
4 -0.24
5 -0.49
6 0.12
9 0.57

>  <PUBCHEM_EFFECTIVE_ROTOR_COUNT>  (1) 
3.6

>  <PUBCHEM_PHARMACOPHORE_FEATURES>  (1) 
8
1 1 acceptor
1 11 hydrophobe
1 12 hydrophobe
1 2 acceptor
1 3 acceptor
1 5 donor
6 14 15 16 17 18 19 rings
6 4 5 6 9 10 13 rings

>  <PUBCHEM_HEAVY_ATOM_COUNT>  (1) 
19

>  <PUBCHEM_ATOM_DEF_STEREO_COUNT>  (1) 
0

>  <PUBCHEM_ATOM_UDEF_STEREO_COUNT>  (1) 
0

>  <PUBCHEM_BOND_DEF_STEREO_COUNT>  (1) 
0

>  <PUBCHEM_BOND_UDEF_STEREO_COUNT>  (1) 
0

>  <PUBCHEM_ISOTOPIC_ATOM_COUNT>  (1) 
0

>  <PUBCHEM_COMPONENT_COUNT>  (1) 
1

>  <PUBCHEM_CACTVS_TAUTO_COUNT>  (1) 
3

>  <PUBCHEM_CONFORMER_ID>  (1) 
000025B200000001

>  <PUBCHEM_MMFF94_ENERGY>  (1) 
70.5444

>  <PUBCHEM_FEATURE_SELFOVERLAP>  (1) 
40.596

>  <PUBCHEM_SHAPE_FINGERPRINT>  (1) 
10967382 1 18341613775704310253
10980938 120 18340483486209080649
11543360 7 16153718634682848223
11578080 2 17387669666553461676
11680611 10 18119805807567235888
116883 192 18129106619281489181
12553582 1 18338235951725071481
12932764 1 17895192169302688623
13140716 1 18340764858312304921
13296908 3 18412826884809249039
14252887 29 18272938257768622347
14787075 74 18046351004622145952
15196674 1 18412545414290977557
15375462 189 18186803539483546347
15536298 74 18343585156918681788
16752209 62 18193551160744252705
16945 1 18194966244677156592
1813 80 13542192641462901958
18186145 218 18187643583552206917
19862831 5 18114472170986683478
20559304 39 18188760648442536834
20645477 70 18412257376688667311
21267235 1 18411709785068966751
21452121 103 18202272624441158104
21501502 16 18334848429504079737
2255824 54 17967533510059621172
2334 1 18340484573020331965
23402539 116 18339634638085002750
23419403 2 13216194543081645994
23559900 14 18269551633248848542
2748010 2 18342173388404936565
34934 24 18341606078922585604
5104073 3 18411138043865818713
5262128 65 18271544021395898836
7364860 26 18129097990655326624
81228 2 18055636110036923049
8809292 202 18408610236347399531
9709674 26 18338238296782912015

>  <PUBCHEM_SHAPE_MULTIPOLES>  (1) 
363.44
6.83
2.25
1.31
5.28
0.64
-0.09
-1.04
1.4
-0.42
-0.53
-1.4
-0.73
0.01

>  <PUBCHEM_SHAPE_SELFOVERLAP>  (1) 
777.408

>  <PUBCHEM_SHAPE_VOLUME>  (1) 
199.1

>  <PUBCHEM_COORDINATE_TYPE>  (1) 
2
5
10

$$$$
