9661
     RDKit          3D

 13 13  0  0  0  0  0  0  0  0999 V2000
    0.3269   -0.5261   -0.6921 O   0  0  0  0  0  0  0  0  0  0  0  0
    1.1704   -1.9322    0.9238 O   0  0  0  0  0  0  0  0  0  0  0  0
    1.3965   -2.4035   -1.3153 N   0  0  0  0  0  0  0  0  0  0  0  0
   -0.1589    0.3529    0.3270 C   0  0  0  0  0  0  0  0  0  0  0  0
   -0.8554    1.5369   -0.3612 C   0  0  0  0  0  0  0  0  0  0  0  0
   -1.1433   -0.4156    1.2237 C   0  0  0  0  0  0  0  0  0  0  0  0
   -2.1206    1.1116   -1.1087 C   0  0  0  0  0  0  0  0  0  0  0  0
   -2.4058   -0.8363    0.4700 C   0  0  0  0  0  0  0  0  0  0  0  0
   -3.0834    0.3549   -0.1994 C   0  0  0  0  0  0  0  0  0  0  0  0
    1.0447    0.8386    1.1367 C   0  0  0  0  0  0  0  0  0  0  0  0
    2.0213    1.5058    0.2731 C   0  0  0  0  0  0  0  0  0  0  0  0
    0.9788   -1.6415   -0.2522 C   0  0  0  0  0  0  0  0  0  0  0  0
    2.8289    2.0545   -0.4256 C   0  0  0  0  0  0  0  0  0  0  0  0
  1  4  1  0
  1 12  1  0
  2 12  2  0
  3 12  1  0
  4  5  1  0
  4  6  1  0
  4 10  1  0
  5  7  1  0
  6  8  1  0
  7  9  1  0
  8  9  1  0
 10 11  1  0
 11 13  3  0
M  END
>  <PUBCHEM_COMPOUND_CID>  (1) 
9661

>  <PUBCHEM_CONFORMER_RMSD>  (1) 
0.6

>  <PUBCHEM_CONFORMER_DIVERSEORDER>  (1) 
1
14
20
25
13
17
7
15
18
12
4
24
22
8
11
16
23
3
19
9
10
2
21
5
6

>  <PUBCHEM_MMFF94_PARTIAL_CHARGES>  (1) 
11
1 -0.43
10 0.2
11 -0.2
12 0.78
13 -0.18
2 -0.57
26 0.37
27 0.37
28 0.18
3 -0.8
4 0.28

>  <PUBCHEM_EFFECTIVE_ROTOR_COUNT>  (1) 
4.2

>  <PUBCHEM_PHARMACOPHORE_FEATURES>  (1) 
4
1 13 hydrophobe
1 2 acceptor
1 3 donor
6 4 5 6 7 8 9 rings

>  <PUBCHEM_HEAVY_ATOM_COUNT>  (1) 
13

>  <PUBCHEM_ATOM_DEF_STEREO_COUNT>  (1) 
0

>  <PUBCHEM_ATOM_UDEF_STEREO_COUNT>  (1) 
0

>  <PUBCHEM_BOND_DEF_STEREO_COUNT>  (1) 
0

>  <PUBCHEM_BOND_UDEF_STEREO_COUNT>  (1) 
0

>  <PUBCHEM_ISOTOPIC_ATOM_COUNT>  (1) 
0

>  <PUBCHEM_COMPONENT_COUNT>  (1) 
1

>  <PUBCHEM_CACTVS_TAUTO_COUNT>  (1) 
2

>  <PUBCHEM_CONFORMER_ID>  (1) 
000025BD00000001

>  <PUBCHEM_MMFF94_ENERGY>  (1) 
26.4052

>  <PUBCHEM_FEATURE_SELFOVERLAP>  (1) 
20.297

>  <PUBCHEM_SHAPE_FINGERPRINT>  (1) 
1 1 18412820313509260140
107287 299 18411981390347844801
12138202 78 18410012091791834644
12138202 97 17968922197915022511
12423570 1 11221331758695661513
12524768 44 18334011662337210157
13024252 1 15939199655227330160
13839132 238 17895464848097044181
14648413 74 18264482880392083669
14817 1 14750629874845319418
14993402 34 17903636633088784925
15219456 202 18334576836893793329
15490181 7 18053363677010157800
15775835 57 18268991067023297336
161256 15 18335431118895039457
16945 1 18190452770983237225
17954114 43 18059848489248188620
17990270 104 18197490732038389375
20379382 53 18127715775848000745
20645476 183 17533223209338589084
20645477 56 18049723224682751280
20645477 70 18341322315662074135
20711985 344 16973924316951827514
20871998 184 17760377981655740778
21501502 16 18338793425489935649
21524375 3 18265889349148125520
21947302 44 18263067851971540093
23418878 81 18343292669909457924
23419403 2 17400423017935670346
23552423 10 18336540500331372385
23559900 14 17327721917701787002
2748010 2 18336271248504421521
3250762 1 18335705975227108529
5084963 1 17912930774803113409
528862 383 18340759382181496914
68250623 7 18041540529586822930
7364860 26 18341894039378937124

>  <PUBCHEM_SHAPE_MULTIPOLES>  (1) 
250.81
3.77
2.37
1.18
0.56
1.14
0.01
-1.82
-0.33
-1.47
-0.65
0
0.25
0.54

>  <PUBCHEM_SHAPE_SELFOVERLAP>  (1) 
504.409

>  <PUBCHEM_SHAPE_VOLUME>  (1) 
143.7

>  <PUBCHEM_COORDINATE_TYPE>  (1) 
2
5
10

$$$$
