9664
     RDKit          3D

  5  4  0  0  0  0  0  0  0  0999 V2000
    2.1530    0.0080   -0.0001 Cl  0  0  0  0  0  0  0  0  0  0  0  0
   -1.7367    0.6191    0.0000 F   0  0  0  0  0  0  0  0  0  0  0  0
   -0.4747   -1.3438    0.0001 F   0  0  0  0  0  0  0  0  0  0  0  0
   -0.5348    0.0046   -0.0002 C   0  0  0  0  0  0  0  0  0  0  0  0
    0.5932    0.7121    0.0002 C   0  0  0  0  0  0  0  0  0  0  0  0
  1  5  1  0
  2  4  1  0
  3  4  1  0
  4  5  2  3
M  END
>  <PUBCHEM_COMPOUND_CID>  (1) 
9664

>  <PUBCHEM_CONFORMER_RMSD>  (1) 
0.4

>  <PUBCHEM_CONFORMER_DIVERSEORDER>  (1) 
1

>  <PUBCHEM_MMFF94_PARTIAL_CHARGES>  (1) 
6
1 -0.14
2 -0.15
3 -0.15
4 0.3
5 -0.01
6 0.15

>  <PUBCHEM_EFFECTIVE_ROTOR_COUNT>  (1) 
0

>  <PUBCHEM_PHARMACOPHORE_FEATURES>  (1) 
0

>  <PUBCHEM_HEAVY_ATOM_COUNT>  (1) 
5

>  <PUBCHEM_ATOM_DEF_STEREO_COUNT>  (1) 
0

>  <PUBCHEM_ATOM_UDEF_STEREO_COUNT>  (1) 
0

>  <PUBCHEM_BOND_DEF_STEREO_COUNT>  (1) 
0

>  <PUBCHEM_BOND_UDEF_STEREO_COUNT>  (1) 
0

>  <PUBCHEM_ISOTOPIC_ATOM_COUNT>  (1) 
0

>  <PUBCHEM_COMPONENT_COUNT>  (1) 
1

>  <PUBCHEM_CACTVS_TAUTO_COUNT>  (1) 
1

>  <PUBCHEM_CONFORMER_ID>  (1) 
000025C000000001

>  <PUBCHEM_MMFF94_ENERGY>  (1) 
0.9413

>  <PUBCHEM_FEATURE_SELFOVERLAP>  (1) 
0

>  <PUBCHEM_SHAPE_FINGERPRINT>  (1) 
139733 1 9222417111248755906
16714656 1 18334298639008752100
20096714 4 18408041814315564240
21015797 1 8860358914274179401
21040471 1 18410855425889866148
5460574 1 9223231845048995040
5943 1 13202625010141570351

>  <PUBCHEM_SHAPE_MULTIPOLES>  (1) 
90.22
2.31
1.01
0.58
0.79
0.25
0
-0.18
0
-0.19
0
0.08
-0.02
0

>  <PUBCHEM_SHAPE_SELFOVERLAP>  (1) 
154.315

>  <PUBCHEM_SHAPE_VOLUME>  (1) 
60.9

>  <PUBCHEM_COORDINATE_TYPE>  (1) 
2
5
10

$$$$
