968
     RDKit          3D

 24 25  0  0  1  0  0  0  0  0999 V2000
   -5.4338    0.3473    0.3074 P   0  0  0  0  0  0  0  0  0  0  0  0
   -0.4280    0.3581    0.7407 O   0  0  0  0  0  0  0  0  0  0  0  0
    0.5407   -2.4438   -1.2284 O   0  0  0  0  0  0  0  0  0  0  0  0
   -2.0451   -0.9914   -2.1550 O   0  0  0  0  0  0  0  0  0  0  0  0
   -3.9293    0.2725   -0.2844 O   0  0  0  0  0  0  0  0  0  0  0  0
    0.7532    2.2099   -0.4629 O   0  0  0  0  0  0  0  0  0  0  0  0
    3.0935   -1.9368    2.0716 O   0  0  0  0  0  0  0  0  0  0  0  0
   -5.4427    1.7202    1.1619 O   0  0  0  0  0  0  0  0  0  0  0  0
   -5.4299   -0.8001    1.4471 O   0  0  0  0  0  0  0  0  0  0  0  0
    5.3486    2.2170   -0.2571 O   0  0  0  0  0  0  0  0  0  0  0  0
    3.2047   -2.7536   -0.0616 O   0  0  0  0  0  0  0  0  0  0  0  0
   -6.5248    0.2209   -0.7154 O   0  0  0  0  0  0  0  0  0  0  0  0
    1.8216    0.2097    0.1219 N   0  0  0  0  0  0  0  0  0  0  0  0
    3.0396    2.2037   -0.3589 N   0  0  0  0  0  0  0  0  0  0  0  0
    0.1171   -1.1034   -1.0575 C   0  0  0  0  0  0  0  0  0  0  0  0
   -1.3855   -1.0285   -0.9045 C   0  0  0  0  0  0  0  0  0  0  0  0
    0.5985   -0.5277    0.2651 C   0  0  0  0  0  0  0  0  0  0  0  0
   -1.5435    0.2859   -0.1614 C   0  0  0  0  0  0  0  0  0  0  0  0
   -2.8416    0.3839    0.6192 C   0  0  0  0  0  0  0  0  0  0  0  0
    3.0535   -0.4165    0.3452 C   0  0  0  0  0  0  0  0  0  0  0  0
    1.7920    1.5809   -0.2475 C   0  0  0  0  0  0  0  0  0  0  0  0
    4.2358    0.1999    0.2335 C   0  0  0  0  0  0  0  0  0  0  0  0
    4.2787    1.6257   -0.1475 C   0  0  0  0  0  0  0  0  0  0  0  0
    3.1268   -1.8337    0.7281 C   0  0  0  0  0  0  0  0  0  0  0  0
  1  5  1  0
  1  8  1  0
  1  9  1  0
  1 12  2  0
  2 17  1  0
  2 18  1  0
  3 15  1  0
  4 16  1  0
  5 19  1  0
  6 21  2  0
  7 24  1  0
 10 23  2  0
 11 24  2  0
 13 17  1  0
 13 20  1  0
 13 21  1  0
 14 21  1  0
 14 23  1  0
 15 16  1  0
 15 17  1  0
 16 18  1  0
 18 19  1  0
 20 22  2  0
 20 24  1  0
 22 23  1  0
M  END
>  <PUBCHEM_COMPOUND_CID>  (1) 
968

>  <PUBCHEM_CONFORMER_RMSD>  (1) 
0.8

>  <PUBCHEM_CONFORMER_DIVERSEORDER>  (1) 
1
113
153
137
44
122
89
8
147
98
108
53
88
111
80
68
14
41
116
21
72
144
139
145
121
46
76
118
105
131
7
81
100
143
130
55
22
56
114
115
112
27
146
57
125
77
63
65
85
104
2
110
140
9
103
150
51
95
141
36
84
82
86
45
136
129
102
13
35
152
151
99
73
120
30
127
25
23
91
124
62
5
101
34
126
26
40
12
138
148
75
132
52
16
67
17
11
28
117
78
83
43
18
123
54
15
119
37
149
29
74
87
92
42
59
38
93
58
133
47
70
106
19
79
32
142
71
135
96
128
60
50
39
90
107
31
66
4
49
69
94
97
109
134
10
24
3
64
61
33
48
6
20

>  <PUBCHEM_MMFF94_PARTIAL_CHARGES>  (1) 
31
1 1.51
10 -0.57
11 -0.57
12 -0.7
13 -0.47
14 -0.49
15 0.28
16 0.28
17 0.58
18 0.28
19 0.28
2 -0.56
20 0.12
21 0.69
22 -0.14
23 0.62
24 0.71
3 -0.68
31 0.4
32 0.4
33 0.15
34 0.37
35 0.5
36 0.5
37 0.5
4 -0.68
5 -0.55
6 -0.57
7 -0.65
8 -0.77
9 -0.77

>  <PUBCHEM_EFFECTIVE_ROTOR_COUNT>  (1) 
6

>  <PUBCHEM_PHARMACOPHORE_FEATURES>  (1) 
17
1 10 acceptor
1 11 acceptor
1 12 acceptor
1 14 donor
1 2 acceptor
1 3 acceptor
1 3 donor
1 4 acceptor
1 4 donor
1 6 acceptor
1 7 acceptor
1 8 acceptor
1 9 acceptor
3 7 11 24 anion
4 1 8 9 12 anion
5 2 15 16 17 18 rings
6 13 14 20 21 22 23 rings

>  <PUBCHEM_HEAVY_ATOM_COUNT>  (1) 
24

>  <PUBCHEM_ATOM_DEF_STEREO_COUNT>  (1) 
0

>  <PUBCHEM_ATOM_UDEF_STEREO_COUNT>  (1) 
4

>  <PUBCHEM_BOND_DEF_STEREO_COUNT>  (1) 
0

>  <PUBCHEM_BOND_UDEF_STEREO_COUNT>  (1) 
0

>  <PUBCHEM_ISOTOPIC_ATOM_COUNT>  (1) 
0

>  <PUBCHEM_COMPONENT_COUNT>  (1) 
1

>  <PUBCHEM_CACTVS_TAUTO_COUNT>  (1) 
3

>  <PUBCHEM_CONFORMER_ID>  (1) 
000003C800000001

>  <PUBCHEM_MMFF94_ENERGY>  (1) 
34.1057

>  <PUBCHEM_FEATURE_SELFOVERLAP>  (1) 
86.394

>  <PUBCHEM_SHAPE_FINGERPRINT>  (1) 
10411042 1 17976255743331866258
11045977 3 18040439897458015691
12107183 9 17833552297725184713
12236239 1 18201719561064452465
12403259 118 18198615545730105985
12644460 14 18410015424871053346
12788726 201 17560812004140865816
13583140 156 18263652921291210417
13782708 43 16370996370021515242
13785724 45 17765158263087778462
14341114 176 18260836981892145569
14790565 3 18194969771062312092
16945 1 18261661645777773902
17349148 13 18130790023613520387
17844677 252 18041841701795495917
20157964 124 18407757024093385143
20645477 70 18335701611503373682
20739085 24 18337680715190340772
21033648 29 17022893537454954197
21267235 1 18337394842799991650
21421861 104 18260820463532126570
23557571 272 15140952920935078958
23559900 14 17313678074205876011
25147074 1 18271508892716311038
335352 9 18411983572929599468
34934 24 18340204193555862760
4073 2 17822300123554639265
4340502 62 17748827436191980506
465052 167 18336550421458380595
8272917 22 18408605846843421730

>  <PUBCHEM_SHAPE_MULTIPOLES>  (1) 
423.23
12.13
2.42
1.26
15.97
0.25
0
-4.15
2.62
-3.28
-0.14
0.63
0.65
-1.28

>  <PUBCHEM_SHAPE_SELFOVERLAP>  (1) 
880.398

>  <PUBCHEM_SHAPE_VOLUME>  (1) 
241.6

>  <PUBCHEM_COORDINATE_TYPE>  (1) 
2
5
10

$$$$
