9683
     RDKit          3D

 22 24  0  0  0  0  0  0  0  0999 V2000
   -0.1894    4.8344   -0.1869 Cl  0  0  0  0  0  0  0  0  0  0  0  0
    3.6139   -0.1730    0.0613 S   0  0  0  0  0  0  0  0  0  0  0  0
   -4.3035   -0.2964   -0.1802 N   0  0  0  0  0  0  0  0  0  0  0  0
    0.5513   -0.2304    0.5925 N   0  0  0  0  0  0  0  0  0  0  0  0
   -3.2653   -0.2687    0.8791 C   0  0  0  0  0  0  0  0  0  0  0  0
   -1.8892   -0.2408    0.2259 C   0  0  0  0  0  0  0  0  0  0  0  0
   -0.7602   -0.2598    1.2529 C   0  0  0  0  0  0  0  0  0  0  0  0
   -4.1763    0.9254   -1.1010 C   0  0  0  0  0  0  0  0  0  0  0  0
   -4.1692   -1.5592   -1.0427 C   0  0  0  0  0  0  0  0  0  0  0  0
   -5.7104   -0.2860    0.4338 C   0  0  0  0  0  0  0  0  0  0  0  0
    1.0980    1.0407    0.2830 C   0  0  0  0  0  0  0  0  0  0  0  0
    1.1404   -1.4753    0.2550 C   0  0  0  0  0  0  0  0  0  0  0  0
    2.4700    1.1917   -0.0003 C   0  0  0  0  0  0  0  0  0  0  0  0
    2.5164   -1.5736   -0.0314 C   0  0  0  0  0  0  0  0  0  0  0  0
    0.2969    2.2012    0.2083 C   0  0  0  0  0  0  0  0  0  0  0  0
    0.3789   -2.6602    0.1547 C   0  0  0  0  0  0  0  0  0  0  0  0
    3.0057    2.4535   -0.3139 C   0  0  0  0  0  0  0  0  0  0  0  0
    3.0941   -2.8093   -0.3732 C   0  0  0  0  0  0  0  0  0  0  0  0
    0.8337    3.4521   -0.1088 C   0  0  0  0  0  0  0  0  0  0  0  0
    0.9572   -3.8849   -0.1901 C   0  0  0  0  0  0  0  0  0  0  0  0
    2.1901    3.5788   -0.3668 C   0  0  0  0  0  0  0  0  0  0  0  0
    2.3169   -3.9601   -0.4513 C   0  0  0  0  0  0  0  0  0  0  0  0
  1 19  1  0
  2 13  1  0
  2 14  1  0
  3  5  1  0
  3  8  1  0
  3  9  1  0
  3 10  1  0
  4  7  1  0
  4 11  1  0
  4 12  1  0
  5  6  1  0
  6  7  1  0
 11 13  2  0
 11 15  1  0
 12 14  2  0
 12 16  1  0
 13 17  1  0
 14 18  1  0
 15 19  2  0
 16 20  2  0
 17 21  2  0
 18 22  2  0
 19 21  1  0
 20 22  1  0
M  CHG  1   3   1
M  END
>  <PUBCHEM_COMPOUND_CID>  (1) 
9683

>  <PUBCHEM_CONFORMER_RMSD>  (1) 
0.8

>  <PUBCHEM_CONFORMER_DIVERSEORDER>  (1) 
1
3
5
2
4

>  <PUBCHEM_MMFF94_PARTIAL_CHARGES>  (1) 
28
1 -0.18
10 0.5
11 0.1
12 0.1
13 0.1
14 0.1
15 -0.15
16 -0.15
17 -0.15
18 -0.15
19 0.18
2 -0.2
20 -0.15
21 -0.15
22 -0.15
3 -1.01
38 0.15
39 0.15
4 -0.57
40 0.15
41 0.15
42 0.15
43 0.15
44 0.15
5 0.5
7 0.37
8 0.5
9 0.5

>  <PUBCHEM_EFFECTIVE_ROTOR_COUNT>  (1) 
4.4

>  <PUBCHEM_PHARMACOPHORE_FEATURES>  (1) 
5
1 3 cation
1 4 cation
6 11 13 15 17 19 21 rings
6 12 14 16 18 20 22 rings
6 2 4 11 12 13 14 rings

>  <PUBCHEM_HEAVY_ATOM_COUNT>  (1) 
22

>  <PUBCHEM_ATOM_DEF_STEREO_COUNT>  (1) 
0

>  <PUBCHEM_ATOM_UDEF_STEREO_COUNT>  (1) 
0

>  <PUBCHEM_BOND_DEF_STEREO_COUNT>  (1) 
0

>  <PUBCHEM_BOND_UDEF_STEREO_COUNT>  (1) 
0

>  <PUBCHEM_ISOTOPIC_ATOM_COUNT>  (1) 
0

>  <PUBCHEM_COMPONENT_COUNT>  (1) 
1

>  <PUBCHEM_CACTVS_TAUTO_COUNT>  (1) 
1

>  <PUBCHEM_CONFORMER_ID>  (1) 
000025D300000001

>  <PUBCHEM_MMFF94_ENERGY>  (1) 
86.164

>  <PUBCHEM_FEATURE_SELFOVERLAP>  (1) 
25.402

>  <PUBCHEM_SHAPE_FINGERPRINT>  (1) 
10411042 1 18122066403379640634
10693767 8 18130797737254043654
10967382 1 18410580595649562234
1100329 8 18267021833667126738
11578080 2 17341502199573237784
116883 192 17978505338956182353
12553582 1 18122359990074208546
12730499 353 18264218078958185003
12788726 201 17541663811759299555
13004483 165 17834386831203513843
13009979 54 17773890692083402523
13140716 1 18265611168965115186
138480 1 18410857611912058375
13911987 19 18190767360722257524
14114211 80 17831328320741875701
14251757 5 17687181989831217789
14790565 3 18338251452495099612
15420108 30 17833816545620264976
16087824 20 17473547945817837625
17134986 127 18121222244852901792
17539 30 17618218403969965478
1813 80 17985562052076374359
18785283 64 18335709398484900699
19591789 44 17834965543480955843
19930381 70 18409727404601553813
20567600 299 18411691102257076413
20642791 105 17693083485428154762
20645477 70 18407760348176753803
20775438 99 17472937789308537581
21307412 95 17839499844452723292
21478907 32 17978230456912533297
21524375 3 17827631770890463489
221357 26 18262794061224169677
221490 88 18409173224993054155
2255824 54 18412545439739274715
23419403 2 17606087668838601798
23558518 356 17828776032177830098
23559900 14 18411415111963834315
238 59 18193267718577458115
266924 87 18265338313692660580
2748010 2 18050308134792563250
3060560 45 18339079401349474116
3380486 145 17835259848078874672
350125 39 17544768184029372016
352729 6 17908433793873145162
3886686 26 17407089520429016632
46194498 28 18334006195197160263
474 4 18339644550537323067
5281201 14 18334857182679071215
59025328 239 17696989775231874071
6025842 7 18411699928641320359
6287921 2 18188493600709100351
6443956 14 18336829684447273452
7164475 11 17833276320233084070
81228 2 17832423098898193800
8272917 22 18412269449752032791

>  <PUBCHEM_SHAPE_MULTIPOLES>  (1) 
448.51
7.84
6.01
0.89
13.43
2.9
-0.01
-2.52
1.09
-5.48
1.15
0.58
-0.08
0.08

>  <PUBCHEM_SHAPE_SELFOVERLAP>  (1) 
925.807

>  <PUBCHEM_SHAPE_VOLUME>  (1) 
260.7

>  <PUBCHEM_COORDINATE_TYPE>  (1) 
2
5
10

$$$$
