9694
     RDKit          3D

 16 16  0  0  1  0  0  0  0  0999 V2000
    0.2799    0.0461   -0.2551 O   0  0  0  0  0  0  0  0  0  0  0  0
    3.1338    0.0749   -0.2474 N   0  0  0  0  0  0  0  0  0  0  0  0
    2.3172   -0.7416    0.7438 C   0  0  0  0  0  0  0  0  0  0  0  0
    0.9553   -0.1011    0.9917 C   0  0  0  0  0  0  0  0  0  0  0  0
    3.3004    1.4931    0.2790 C   0  0  0  0  0  0  0  0  0  0  0  0
    4.5033   -0.5647   -0.4245 C   0  0  0  0  0  0  0  0  0  0  0  0
    2.4144    0.1128   -1.5880 C   0  0  0  0  0  0  0  0  0  0  0  0
    0.0716   -0.8740    1.9619 C   0  0  0  0  0  0  0  0  0  0  0  0
   -1.0882    0.0594   -0.2142 C   0  0  0  0  0  0  0  0  0  0  0  0
   -1.7652    1.2666   -0.0603 C   0  0  0  0  0  0  0  0  0  0  0  0
   -1.7961   -1.1346   -0.3263 C   0  0  0  0  0  0  0  0  0  0  0  0
   -3.1593    1.2800   -0.0179 C   0  0  0  0  0  0  0  0  0  0  0  0
   -3.1904   -1.1211   -0.2840 C   0  0  0  0  0  0  0  0  0  0  0  0
   -1.0202    2.5551    0.0619 C   0  0  0  0  0  0  0  0  0  0  0  0
   -1.0847   -2.4371   -0.4907 C   0  0  0  0  0  0  0  0  0  0  0  0
   -3.8718    0.0863   -0.1298 C   0  0  0  0  0  0  0  0  0  0  0  0
  1  4  1  0
  1  9  1  0
  2  3  1  0
  2  5  1  0
  2  6  1  0
  2  7  1  0
  3  4  1  0
  4  8  1  0
  9 10  2  0
  9 11  1  0
 10 12  1  0
 10 14  1  0
 11 13  2  0
 11 15  1  0
 12 16  2  0
 13 16  1  0
M  CHG  1   2   1
M  END
>  <PUBCHEM_COMPOUND_CID>  (1) 
9694

>  <PUBCHEM_CONFORMER_RMSD>  (1) 
0.6

>  <PUBCHEM_CONFORMER_DIVERSEORDER>  (1) 
2
6
7
5
1
3
4

>  <PUBCHEM_MMFF94_PARTIAL_CHARGES>  (1) 
18
1 -0.36
10 -0.14
11 -0.14
12 -0.15
13 -0.15
14 0.14
15 0.14
16 -0.15
2 -1.01
3 0.5
32 0.15
33 0.15
4 0.28
40 0.15
5 0.5
6 0.5
7 0.5
9 0.08

>  <PUBCHEM_EFFECTIVE_ROTOR_COUNT>  (1) 
4

>  <PUBCHEM_PHARMACOPHORE_FEATURES>  (1) 
3
1 1 acceptor
1 2 cation
6 9 10 11 12 13 16 rings

>  <PUBCHEM_HEAVY_ATOM_COUNT>  (1) 
16

>  <PUBCHEM_ATOM_DEF_STEREO_COUNT>  (1) 
0

>  <PUBCHEM_ATOM_UDEF_STEREO_COUNT>  (1) 
1

>  <PUBCHEM_BOND_DEF_STEREO_COUNT>  (1) 
0

>  <PUBCHEM_BOND_UDEF_STEREO_COUNT>  (1) 
0

>  <PUBCHEM_ISOTOPIC_ATOM_COUNT>  (1) 
0

>  <PUBCHEM_COMPONENT_COUNT>  (1) 
1

>  <PUBCHEM_CACTVS_TAUTO_COUNT>  (1) 
1

>  <PUBCHEM_CONFORMER_ID>  (1) 
000025DE00000002

>  <PUBCHEM_MMFF94_ENERGY>  (1) 
77.4615

>  <PUBCHEM_FEATURE_SELFOVERLAP>  (1) 
15.223

>  <PUBCHEM_SHAPE_FINGERPRINT>  (1) 
10498660 4 18410283684423493093
11132069 177 18410284839405711777
11715629 250 18335128804726731872
12173636 292 18340478998116099141
12186901 62 18410575041956148781
12236239 1 17967533458593886223
12491281 212 18335990774302635328
13221675 6 18335417976110464955
13538477 17 18261098660831780459
14787075 74 17532386442234861187
14993402 34 18410002252601800431
15309172 13 18340774762728422411
15536298 74 18340484568804992584
15669948 3 18339913900531407967
15775835 57 18114744837006542884
16752209 62 18266438967770798005
16945 1 18339348713010464019
18186145 218 17748821934270191638
19422 9 18186515475768748451
19873495 37 18113901545958469723
20201158 50 17203614774264217070
20279233 1 16774076280454867686
20510252 161 18273496749915645433
20645476 183 18040149617693093159
20871999 31 18340759455459873831
22802520 49 18131353007319992442
228727 97 18114179730984723025
23175994 123 16630812101267096944
23236772 104 18113051628033873257
23402539 116 18343012281359104292
23526113 38 17203046279333943086
23557571 272 18200599232120511396
23559900 14 18201716241888085002
23598291 2 17824813447895300122
2748010 2 18196354026537207345
4028521 119 18261105270696947196
474 4 17604714520381021732
58051976 100 18410576167369806350
69090 78 18412260636078260390
77492 1 17967247585549591311
9709674 26 18272376373310605814
9981440 41 17394738714872285744

>  <PUBCHEM_SHAPE_MULTIPOLES>  (1) 
318.42
6.79
2.04
1.17
3.59
0.36
0.29
0.32
-1.27
-1.06
-0.07
0.6
-0.28
-0.16

>  <PUBCHEM_SHAPE_SELFOVERLAP>  (1) 
641.56

>  <PUBCHEM_SHAPE_VOLUME>  (1) 
190.2

>  <PUBCHEM_COORDINATE_TYPE>  (1) 
2
5
10

$$$$
