9701
     RDKit          3D

 13 13  0  0  1  0  0  0  0  0999 V2000
   -1.4335   -1.8578   -0.4805 O   0  0  0  0  0  0  0  0  0  0  0  0
    4.3310    0.3355    0.2232 O   0  0  0  0  0  0  0  0  0  0  0  0
   -3.4883   -0.1250    0.4802 N   0  0  0  0  0  0  0  0  0  0  0  0
   -2.0691    0.1738    0.7091 C   0  0  0  0  0  0  0  0  0  0  0  0
   -1.2194   -0.4448   -0.4237 C   0  0  0  0  0  0  0  0  0  0  0  0
    0.2699   -0.2355   -0.2505 C   0  0  0  0  0  0  0  0  0  0  0  0
   -1.9147    1.6934    0.7965 C   0  0  0  0  0  0  0  0  0  0  0  0
    0.9850    0.3927   -1.2550 C   0  0  0  0  0  0  0  0  0  0  0  0
    0.8824   -0.6765    0.9091 C   0  0  0  0  0  0  0  0  0  0  0  0
   -3.9472    0.4943   -0.7508 C   0  0  0  0  0  0  0  0  0  0  0  0
    2.3573    0.5857   -1.0946 C   0  0  0  0  0  0  0  0  0  0  0  0
    2.2545   -0.4833    1.0695 C   0  0  0  0  0  0  0  0  0  0  0  0
    2.9920    0.1476    0.0676 C   0  0  0  0  0  0  0  0  0  0  0  0
  1  5  1  0
  2 13  1  0
  3  4  1  0
  3 10  1  0
  4  5  1  0
  4  7  1  0
  5  6  1  0
  6  8  2  0
  6  9  1  0
  8 11  1  0
  9 12  2  0
 11 13  2  0
 12 13  1  0
M  END
>  <PUBCHEM_COMPOUND_CID>  (1) 
9701

>  <PUBCHEM_CONFORMER_RMSD>  (1) 
0.6

>  <PUBCHEM_CONFORMER_DIVERSEORDER>  (1) 
2
17
18
9
1
6
11
14
8
7
12
4
5
16
15
13
3
10

>  <PUBCHEM_MMFF94_PARTIAL_CHARGES>  (1) 
19
1 -0.68
10 0.27
11 -0.15
12 -0.15
13 0.08
19 0.36
2 -0.53
20 0.15
21 0.15
22 0.4
26 0.15
27 0.15
28 0.45
3 -0.9
4 0.27
5 0.42
6 -0.14
8 -0.15
9 -0.15

>  <PUBCHEM_EFFECTIVE_ROTOR_COUNT>  (1) 
3

>  <PUBCHEM_PHARMACOPHORE_FEATURES>  (1) 
6
1 1 acceptor
1 1 donor
1 2 donor
1 3 cation
1 3 donor
6 6 8 9 11 12 13 rings

>  <PUBCHEM_HEAVY_ATOM_COUNT>  (1) 
13

>  <PUBCHEM_ATOM_DEF_STEREO_COUNT>  (1) 
0

>  <PUBCHEM_ATOM_UDEF_STEREO_COUNT>  (1) 
2

>  <PUBCHEM_BOND_DEF_STEREO_COUNT>  (1) 
0

>  <PUBCHEM_BOND_UDEF_STEREO_COUNT>  (1) 
0

>  <PUBCHEM_ISOTOPIC_ATOM_COUNT>  (1) 
0

>  <PUBCHEM_COMPONENT_COUNT>  (1) 
1

>  <PUBCHEM_CACTVS_TAUTO_COUNT>  (1) 
2

>  <PUBCHEM_CONFORMER_ID>  (1) 
000025E500000002

>  <PUBCHEM_MMFF94_ENERGY>  (1) 
33.5921

>  <PUBCHEM_FEATURE_SELFOVERLAP>  (1) 
30.449

>  <PUBCHEM_SHAPE_FINGERPRINT>  (1) 
10219947 1 17022906748415322344
11031198 65 15410900660399764292
11062470 55 16515402954300614249
11471102 20 16805317795182648782
11471102 22 16370731417704694824
12138202 97 17346875658726548007
12251169 10 16805328803178495275
124424 183 17275386495574270022
13538477 17 18409163350498782379
13581323 91 18343864424271672166
13839132 238 17702392749168664809
14144814 61 18335143059385369409
14993402 34 18409727357135270093
15310529 11 13326856600176653625
15775835 57 18259985980755166533
16945 1 18272664457898495469
17844478 74 16415485943359901689
18186145 218 16558202500815559245
18534176 82 17632016445911785439
190213 19 18260552216442828898
200 152 17821723970740049411
20201158 50 16128660747062787382
20344682 1 16702301260799990997
20645477 70 16878493545185710866
21293036 1 14548737313608841036
23402539 116 17917703591691883573
23557571 272 17702104874817069286
305870 269 18197505021368287315
77492 1 18259984894181155639

>  <PUBCHEM_SHAPE_MULTIPOLES>  (1) 
250.81
6.38
1.2
1.16
0.29
0.03
-0.12
0.86
-0.8
-0.22
0.1
0.64
0.01
-0.44

>  <PUBCHEM_SHAPE_SELFOVERLAP>  (1) 
511.178

>  <PUBCHEM_SHAPE_VOLUME>  (1) 
146.8

>  <PUBCHEM_COORDINATE_TYPE>  (1) 
2
5
10

$$$$
