9718
     RDKit          3D

  8  8  0  0  0  0  0  0  0  0999 V2000
    1.9442   -0.0002   -0.0001 N   0  0  0  0  0  0  0  0  0  0  0  0
    3.0369    0.0001    0.0002 N   0  0  0  0  0  0  0  0  0  0  0  0
    0.5647   -0.0003   -0.0002 C   0  0  0  0  0  0  0  0  0  0  0  0
   -0.1325    1.2078    0.0000 C   0  0  0  0  0  0  0  0  0  0  0  0
   -0.1330   -1.2081    0.0000 C   0  0  0  0  0  0  0  0  0  0  0  0
   -1.5274    1.2081    0.0000 C   0  0  0  0  0  0  0  0  0  0  0  0
   -1.5279   -1.2078    0.0000 C   0  0  0  0  0  0  0  0  0  0  0  0
   -2.2251    0.0003    0.0000 C   0  0  0  0  0  0  0  0  0  0  0  0
  1  2  3  0
  1  3  1  0
  3  4  2  0
  3  5  1  0
  4  6  1  0
  5  7  2  0
  6  8  2  0
  7  8  1  0
M  CHG  1   1   1
M  END
>  <PUBCHEM_COMPOUND_CID>  (1) 
9718

>  <PUBCHEM_CONFORMER_RMSD>  (1) 
0.4

>  <PUBCHEM_CONFORMER_DIVERSEORDER>  (1) 
1

>  <PUBCHEM_MMFF94_PARTIAL_CHARGES>  (1) 
13
1 1.35
10 0.15
11 0.15
12 0.15
13 0.15
2 -0.49
3 0.14
4 -0.15
5 -0.15
6 -0.15
7 -0.15
8 -0.15
9 0.15

>  <PUBCHEM_EFFECTIVE_ROTOR_COUNT>  (1) 
0

>  <PUBCHEM_PHARMACOPHORE_FEATURES>  (1) 
1
6 3 4 5 6 7 8 rings

>  <PUBCHEM_HEAVY_ATOM_COUNT>  (1) 
8

>  <PUBCHEM_ATOM_DEF_STEREO_COUNT>  (1) 
0

>  <PUBCHEM_ATOM_UDEF_STEREO_COUNT>  (1) 
0

>  <PUBCHEM_BOND_DEF_STEREO_COUNT>  (1) 
0

>  <PUBCHEM_BOND_UDEF_STEREO_COUNT>  (1) 
0

>  <PUBCHEM_ISOTOPIC_ATOM_COUNT>  (1) 
0

>  <PUBCHEM_COMPONENT_COUNT>  (1) 
1

>  <PUBCHEM_CACTVS_TAUTO_COUNT>  (1) 
1

>  <PUBCHEM_CONFORMER_ID>  (1) 
000025F600000001

>  <PUBCHEM_MMFF94_ENERGY>  (1) 
14.7999

>  <PUBCHEM_FEATURE_SELFOVERLAP>  (1) 
5.074

>  <PUBCHEM_SHAPE_FINGERPRINT>  (1) 
10857977 72 18340195401298696864
16714656 1 18410856559676712863
21040471 1 18266459802240510241
23552423 10 18115869779256796452
29004967 10 16343708733187034878
369184 2 18411978061679475746

>  <PUBCHEM_SHAPE_MULTIPOLES>  (1) 
154.67
3.21
1.37
0.6
2.27
0
0
0
0
-0.58
0
-0.06
0
0

>  <PUBCHEM_SHAPE_SELFOVERLAP>  (1) 
321.167

>  <PUBCHEM_SHAPE_VOLUME>  (1) 
87.9

>  <PUBCHEM_COORDINATE_TYPE>  (1) 
2
5
10

$$$$
