9721
     RDKit          3D

 11 11  0  0  0  0  0  0  0  0999 V2000
    0.8609   -0.0392   -1.4145 S   0  0  0  0  0  0  0  0  0  0  0  0
    4.1797    0.0322    0.7267 F   0  0  0  0  0  0  0  0  0  0  0  0
    1.5451    0.0243    1.1395 O   0  0  0  0  0  0  0  0  0  0  0  0
   -0.7370   -0.0167   -0.6252 C   0  0  0  0  0  0  0  0  0  0  0  0
   -1.3603    1.1997   -0.3466 C   0  0  0  0  0  0  0  0  0  0  0  0
   -1.3644   -1.2156   -0.2861 C   0  0  0  0  0  0  0  0  0  0  0  0
   -2.6108    1.2175    0.2710 C   0  0  0  0  0  0  0  0  0  0  0  0
   -2.6150   -1.1978    0.3315 C   0  0  0  0  0  0  0  0  0  0  0  0
   -3.2381    0.0187    0.6100 C   0  0  0  0  0  0  0  0  0  0  0  0
    1.9416   -0.0057   -0.0194 C   0  0  0  0  0  0  0  0  0  0  0  0
    3.3982   -0.0174   -0.3870 C   0  0  0  0  0  0  0  0  0  0  0  0
  1  4  1  0
  1 10  1  0
  2 11  1  0
  3 10  2  0
  4  5  2  0
  4  6  1  0
  5  7  1  0
  6  8  2  0
  7  9  2  0
  8  9  1  0
 10 11  1  0
M  END
>  <PUBCHEM_COMPOUND_CID>  (1) 
9721

>  <PUBCHEM_CONFORMER_RMSD>  (1) 
0.6

>  <PUBCHEM_CONFORMER_DIVERSEORDER>  (1) 
1
14
20
13
9
21
18
11
23
12
15
5
22
10
16
3
19
2
6
17
4
7
8

>  <PUBCHEM_MMFF94_PARTIAL_CHARGES>  (1) 
16
1 -0.24
10 0.65
11 0.4
12 0.15
13 0.15
14 0.15
15 0.15
16 0.15
2 -0.34
3 -0.57
4 0.1
5 -0.15
6 -0.15
7 -0.15
8 -0.15
9 -0.15

>  <PUBCHEM_EFFECTIVE_ROTOR_COUNT>  (1) 
3

>  <PUBCHEM_PHARMACOPHORE_FEATURES>  (1) 
1
6 4 5 6 7 8 9 rings

>  <PUBCHEM_HEAVY_ATOM_COUNT>  (1) 
11

>  <PUBCHEM_ATOM_DEF_STEREO_COUNT>  (1) 
0

>  <PUBCHEM_ATOM_UDEF_STEREO_COUNT>  (1) 
0

>  <PUBCHEM_BOND_DEF_STEREO_COUNT>  (1) 
0

>  <PUBCHEM_BOND_UDEF_STEREO_COUNT>  (1) 
0

>  <PUBCHEM_ISOTOPIC_ATOM_COUNT>  (1) 
0

>  <PUBCHEM_COMPONENT_COUNT>  (1) 
1

>  <PUBCHEM_CACTVS_TAUTO_COUNT>  (1) 
1

>  <PUBCHEM_CONFORMER_ID>  (1) 
000025F900000001

>  <PUBCHEM_MMFF94_ENERGY>  (1) 
19.65

>  <PUBCHEM_FEATURE_SELFOVERLAP>  (1) 
5.074

>  <PUBCHEM_SHAPE_FINGERPRINT>  (1) 
10857977 72 18342749537151405157
11031198 65 16415489233109795060
12251169 10 18410859875359920892
124424 183 17846495890177493622
12897270 3 8502371118062067469
12932764 1 17704348875160094750
13024252 1 14562529566282931677
15219456 202 17845946125478369750
15775835 57 18410015394790354147
19422 9 17894918429535782198
20201158 50 17489593337511385663
20645464 45 17917717889716925327
20653085 51 14836115572390961019
20711985 344 13190877823520687663
20871998 184 18271815674025386567
22445834 79 17749107764238297539
23235685 24 16200432459561431406
23402539 116 18272644658948496407
369184 2 17917993862982980559
75552 356 18335706061115716607
77492 1 17603882120852416150

>  <PUBCHEM_SHAPE_MULTIPOLES>  (1) 
217.08
6.05
1.16
1.06
4.48
0
0.14
-0.04
-1.76
-1.05
0.03
0.43
0
0.03

>  <PUBCHEM_SHAPE_SELFOVERLAP>  (1) 
430.606

>  <PUBCHEM_SHAPE_VOLUME>  (1) 
129.3

>  <PUBCHEM_COORDINATE_TYPE>  (1) 
2
5
10

$$$$
