9739
     RDKit          3D

  9  8  0  0  0  0  0  0  0  0999 V2000
   -3.4666    0.6134    0.8729 Cl  0  0  0  0  0  0  0  0  0  0  0  0
   -1.8722   -0.1941   -0.1288 S   0  0  0  0  0  0  0  0  0  0  0  0
    3.4587   -0.9735    0.2573 F   0  0  0  0  0  0  0  0  0  0  0  0
   -1.7481   -1.5422    0.3921 O   0  0  0  0  0  0  0  0  0  0  0  0
   -2.1454    0.0584   -1.5307 O   0  0  0  0  0  0  0  0  0  0  0  0
    0.8267    0.1151   -0.1916 C   0  0  0  0  0  0  0  0  0  0  0  0
   -0.4513    0.7358    0.3514 C   0  0  0  0  0  0  0  0  0  0  0  0
    2.0575    0.9111    0.2424 C   0  0  0  0  0  0  0  0  0  0  0  0
    3.3407    0.2760   -0.2650 C   0  0  0  0  0  0  0  0  0  0  0  0
  1  2  1  0
  2  4  2  0
  2  5  2  0
  2  7  1  0
  3  9  1  0
  6  7  1  0
  6  8  1  0
  8  9  1  0
M  END
>  <PUBCHEM_COMPOUND_CID>  (1) 
9739

>  <PUBCHEM_CONFORMER_RMSD>  (1) 
0.6

>  <PUBCHEM_CONFORMER_DIVERSEORDER>  (1) 
1
30
29
4
9
25
2
24
18
7
17
26
19
5
21
8
23
6
22
11
27
12
28
3
15
14
20
13
10
16

>  <PUBCHEM_MMFF94_PARTIAL_CHARGES>  (1) 
7
1 -0.19
2 1.38
3 -0.34
4 -0.65
5 -0.65
7 0.11
9 0.34

>  <PUBCHEM_EFFECTIVE_ROTOR_COUNT>  (1) 
4

>  <PUBCHEM_PHARMACOPHORE_FEATURES>  (1) 
0

>  <PUBCHEM_HEAVY_ATOM_COUNT>  (1) 
9

>  <PUBCHEM_ATOM_DEF_STEREO_COUNT>  (1) 
0

>  <PUBCHEM_ATOM_UDEF_STEREO_COUNT>  (1) 
0

>  <PUBCHEM_BOND_DEF_STEREO_COUNT>  (1) 
0

>  <PUBCHEM_BOND_UDEF_STEREO_COUNT>  (1) 
0

>  <PUBCHEM_ISOTOPIC_ATOM_COUNT>  (1) 
0

>  <PUBCHEM_COMPONENT_COUNT>  (1) 
1

>  <PUBCHEM_CACTVS_TAUTO_COUNT>  (1) 
1

>  <PUBCHEM_CONFORMER_ID>  (1) 
0000260B00000001

>  <PUBCHEM_MMFF94_ENERGY>  (1) 
0.9416

>  <PUBCHEM_FEATURE_SELFOVERLAP>  (1) 
0

>  <PUBCHEM_SHAPE_FINGERPRINT>  (1) 
10857977 72 13470402313969445910
11062470 55 16917351419839969777
12932764 1 17458335373095907584
14325111 11 18340770428874299024
14390081 3 10303823076739396498
14577589 140 17561370581985935973
15310529 11 16298378046280097161
20211469 26 12751243583927858568
21293036 1 12901553459316879672
23235685 24 18411136926768152057
23380061 50 14333118672249131778
23402539 116 15841547436882957137
3248919 1 18340477971666316448

>  <PUBCHEM_SHAPE_MULTIPOLES>  (1) 
171.92
6.19
1.11
0.94
2.48
0.12
0.25
-0.11
-0.7
-0.21
-0.21
-0.57
0.11
-0.31

>  <PUBCHEM_SHAPE_SELFOVERLAP>  (1) 
294.612

>  <PUBCHEM_SHAPE_VOLUME>  (1) 
115.5

>  <PUBCHEM_COORDINATE_TYPE>  (1) 
2
5
10

$$$$
