9742
     RDKit          3D

  8  8  0  0  0  0  0  0  0  0999 V2000
   -2.3578    1.0617   -0.0002 F   0  0  0  0  0  0  0  0  0  0  0  0
    2.4397    1.0145   -0.0002 N   0  0  0  0  0  0  0  0  0  0  0  0
    1.2062    0.3304    0.0002 C   0  0  0  0  0  0  0  0  0  0  0  0
    0.0104    1.0486    0.0002 C   0  0  0  0  0  0  0  0  0  0  0  0
    1.1822   -1.0642    0.0000 C   0  0  0  0  0  0  0  0  0  0  0  0
   -1.2094    0.3721    0.0000 C   0  0  0  0  0  0  0  0  0  0  0  0
   -0.0377   -1.7406    0.0000 C   0  0  0  0  0  0  0  0  0  0  0  0
   -1.2335   -1.0225    0.0000 C   0  0  0  0  0  0  0  0  0  0  0  0
  1  6  1  0
  2  3  1  0
  3  4  2  0
  3  5  1  0
  4  6  1  0
  5  7  2  0
  6  8  2  0
  7  8  1  0
M  END
>  <PUBCHEM_COMPOUND_CID>  (1) 
9742

>  <PUBCHEM_CONFORMER_RMSD>  (1) 
0.4

>  <PUBCHEM_CONFORMER_DIVERSEORDER>  (1) 
1

>  <PUBCHEM_MMFF94_PARTIAL_CHARGES>  (1) 
14
1 -0.19
10 0.15
11 0.15
12 0.15
13 0.4
14 0.4
2 -0.9
3 0.1
4 -0.15
5 -0.15
6 0.19
7 -0.15
8 -0.15
9 0.15

>  <PUBCHEM_EFFECTIVE_ROTOR_COUNT>  (1) 
0

>  <PUBCHEM_PHARMACOPHORE_FEATURES>  (1) 
3
1 2 cation
1 2 donor
6 3 4 5 6 7 8 rings

>  <PUBCHEM_HEAVY_ATOM_COUNT>  (1) 
8

>  <PUBCHEM_ATOM_DEF_STEREO_COUNT>  (1) 
0

>  <PUBCHEM_ATOM_UDEF_STEREO_COUNT>  (1) 
0

>  <PUBCHEM_BOND_DEF_STEREO_COUNT>  (1) 
0

>  <PUBCHEM_BOND_UDEF_STEREO_COUNT>  (1) 
0

>  <PUBCHEM_ISOTOPIC_ATOM_COUNT>  (1) 
0

>  <PUBCHEM_COMPONENT_COUNT>  (1) 
1

>  <PUBCHEM_CACTVS_TAUTO_COUNT>  (1) 
1

>  <PUBCHEM_CONFORMER_ID>  (1) 
0000260E00000001

>  <PUBCHEM_MMFF94_ENERGY>  (1) 
26.1306

>  <PUBCHEM_FEATURE_SELFOVERLAP>  (1) 
15.223

>  <PUBCHEM_SHAPE_FINGERPRINT>  (1) 
16714656 1 18122630719184616982
18185500 45 17330274965987947179
20096714 4 18410856516727182795
21040471 1 18410573998136612288
23552423 10 18260831552969158694
241688 4 16826717284808892586
29004967 10 17975140833586197603

>  <PUBCHEM_SHAPE_MULTIPOLES>  (1) 
152.38
2.48
1.67
0.59
0.3
0.44
0
-0.97
0
-0.13
0
0.01
0.03
0

>  <PUBCHEM_SHAPE_SELFOVERLAP>  (1) 
317.056

>  <PUBCHEM_SHAPE_VOLUME>  (1) 
87.2

>  <PUBCHEM_COORDINATE_TYPE>  (1) 
2
5
10

$$$$
