9744
     RDKit          3D

 10  9  0  0  0  0  0  0  0  0999 V2000
   -4.0983   -0.2851   -0.0226 F   0  0  0  0  0  0  0  0  0  0  0  0
    1.9555   -0.4954    0.0145 O   0  0  0  0  0  0  0  0  0  0  0  0
   -1.9137    1.1933    0.0087 O   0  0  0  0  0  0  0  0  0  0  0  0
    0.7629    1.4772   -0.0067 O   0  0  0  0  0  0  0  0  0  0  0  0
   -0.3757   -0.6735    0.0320 C   0  0  0  0  0  0  0  0  0  0  0  0
    3.1802    0.2446   -0.0181 C   0  0  0  0  0  0  0  0  0  0  0  0
    0.8129    0.2557    0.0165 C   0  0  0  0  0  0  0  0  0  0  0  0
   -1.7451   -0.0246    0.0025 C   0  0  0  0  0  0  0  0  0  0  0  0
    4.3426   -0.7252   -0.0161 C   0  0  0  0  0  0  0  0  0  0  0  0
   -2.9213   -0.9670   -0.0108 C   0  0  0  0  0  0  0  0  0  0  0  0
  1 10  1  0
  2  6  1  0
  2  7  1  0
  3  8  2  0
  4  7  2  0
  5  7  1  0
  5  8  1  0
  6  9  1  0
  8 10  1  0
M  END
>  <PUBCHEM_COMPOUND_CID>  (1) 
9744

>  <PUBCHEM_CONFORMER_RMSD>  (1) 
0.6

>  <PUBCHEM_CONFORMER_DIVERSEORDER>  (1) 
1
208
119
185
115
102
71
107
130
43
26
63
124
104
10
125
67
9
128
168
172
218
2
158
40
137
127
12
103
197
70
150
187
81
171
166
53
100
54
101
151
136
77
135
8
29
156
178
18
97
88
91
47
5
38
52
194
13
27
165
14
33
80
173
36
117
188
21
15
174
203
111
74
182
160
175
95
46
87
193
191
72
211
6
142
44
179
149
85
82
210
51
62
39
112
7
99
75
49
148
132
28
181
83
200
138
144
60
96
154
65
147
68
186
24
55
157
217
56
113
202
48
78
189
58
213
4
79
73
219
206
133
163
134
16
11
84
30
176
205
214
42
123
195
204
23
37
57
69
122
90
216
31
131
141
89
3
64
184
126
139
212
159
41
169
17
121
152
35
207
61
192
180
196
32
215
105
177
164
118
170
94
50
162
140
199
106
25
108
120
22
198
116
34
45
145
19
59
129
66
161
109
155
201
146
92
209
114
86
183
190
110
20
143
93
98
76
153
167

>  <PUBCHEM_MMFF94_PARTIAL_CHARGES>  (1) 
9
1 -0.34
10 0.4
2 -0.43
3 -0.57
4 -0.57
5 0.12
6 0.28
7 0.66
8 0.45

>  <PUBCHEM_EFFECTIVE_ROTOR_COUNT>  (1) 
5

>  <PUBCHEM_PHARMACOPHORE_FEATURES>  (1) 
3
1 3 acceptor
1 4 acceptor
1 5 anion

>  <PUBCHEM_HEAVY_ATOM_COUNT>  (1) 
10

>  <PUBCHEM_ATOM_DEF_STEREO_COUNT>  (1) 
0

>  <PUBCHEM_ATOM_UDEF_STEREO_COUNT>  (1) 
0

>  <PUBCHEM_BOND_DEF_STEREO_COUNT>  (1) 
0

>  <PUBCHEM_BOND_UDEF_STEREO_COUNT>  (1) 
0

>  <PUBCHEM_ISOTOPIC_ATOM_COUNT>  (1) 
0

>  <PUBCHEM_COMPONENT_COUNT>  (1) 
1

>  <PUBCHEM_CACTVS_TAUTO_COUNT>  (1) 
5

>  <PUBCHEM_CONFORMER_ID>  (1) 
0000261000000001

>  <PUBCHEM_MMFF94_ENERGY>  (1) 
4.5826

>  <PUBCHEM_FEATURE_SELFOVERLAP>  (1) 
15.23

>  <PUBCHEM_SHAPE_FINGERPRINT>  (1) 
10219947 1 17989209261010011046
11062470 55 11959732672294143458
12032990 46 18411986853678179054
12932764 1 16773784879761146078
13690532 89 18410572898551417343
14325111 11 18410856547108309064
177051 138 18412263909392050446
20201158 50 18410577292329412883
21293036 1 17894630370258136198
22485316 2 18410288121040209674
23402539 116 18059848455336803933

>  <PUBCHEM_SHAPE_MULTIPOLES>  (1) 
180.91
7.15
1.12
0.58
1.97
0.25
0
-1.94
-0.08
-0.12
0
0.04
-0.02
0

>  <PUBCHEM_SHAPE_SELFOVERLAP>  (1) 
339.436

>  <PUBCHEM_SHAPE_VOLUME>  (1) 
112

>  <PUBCHEM_COORDINATE_TYPE>  (1) 
2
5
10

$$$$
