9751
     RDKit          3D

 12 11  0  0  0  0  0  0  0  0999 V2000
    4.5456    1.3492   -0.1814 F   0  0  0  0  0  0  0  0  0  0  0  0
   -4.5460    1.3500    0.1823 F   0  0  0  0  0  0  0  0  0  0  0  0
    1.3768   -0.2118   -0.2729 O   0  0  0  0  0  0  0  0  0  0  0  0
   -1.3735   -0.2188    0.2703 O   0  0  0  0  0  0  0  0  0  0  0  0
    3.3393   -0.8545    0.7618 O   0  0  0  0  0  0  0  0  0  0  0  0
   -3.3402   -0.8536   -0.7614 O   0  0  0  0  0  0  0  0  0  0  0  0
    0.7206   -1.3782    0.2344 C   0  0  0  0  0  0  0  0  0  0  0  0
   -0.7216   -1.3780   -0.2343 C   0  0  0  0  0  0  0  0  0  0  0  0
    2.6892   -0.0805    0.0724 C   0  0  0  0  0  0  0  0  0  0  0  0
   -2.6898   -0.0800   -0.0719 C   0  0  0  0  0  0  0  0  0  0  0  0
    3.2404    1.1778   -0.5263 C   0  0  0  0  0  0  0  0  0  0  0  0
   -3.2408    1.1784    0.5271 C   0  0  0  0  0  0  0  0  0  0  0  0
  1 11  1  0
  2 12  1  0
  3  7  1  0
  3  9  1  0
  4  8  1  0
  4 10  1  0
  5  9  2  0
  6 10  2  0
  7  8  1  0
  9 11  1  0
 10 12  1  0
M  END
>  <PUBCHEM_COMPOUND_CID>  (1) 
9751

>  <PUBCHEM_CONFORMER_RMSD>  (1) 
0.8

>  <PUBCHEM_CONFORMER_DIVERSEORDER>  (1) 
1
13
31
27
9
10
17
15
3
14
2
21
26
4
7
24
5
23
8
33
37
20
38
25
40
28
34
16
35
19
29
18
30
36
32
6
12
22
39
11

>  <PUBCHEM_MMFF94_PARTIAL_CHARGES>  (1) 
12
1 -0.34
10 0.66
11 0.4
12 0.4
2 -0.34
3 -0.43
4 -0.43
5 -0.57
6 -0.57
7 0.28
8 0.28
9 0.66

>  <PUBCHEM_EFFECTIVE_ROTOR_COUNT>  (1) 
7

>  <PUBCHEM_PHARMACOPHORE_FEATURES>  (1) 
2
1 5 acceptor
1 6 acceptor

>  <PUBCHEM_HEAVY_ATOM_COUNT>  (1) 
12

>  <PUBCHEM_ATOM_DEF_STEREO_COUNT>  (1) 
0

>  <PUBCHEM_ATOM_UDEF_STEREO_COUNT>  (1) 
0

>  <PUBCHEM_BOND_DEF_STEREO_COUNT>  (1) 
0

>  <PUBCHEM_BOND_UDEF_STEREO_COUNT>  (1) 
0

>  <PUBCHEM_ISOTOPIC_ATOM_COUNT>  (1) 
0

>  <PUBCHEM_COMPONENT_COUNT>  (1) 
1

>  <PUBCHEM_CACTVS_TAUTO_COUNT>  (1) 
1

>  <PUBCHEM_CONFORMER_ID>  (1) 
0000261700000001

>  <PUBCHEM_MMFF94_ENERGY>  (1) 
7.8233

>  <PUBCHEM_FEATURE_SELFOVERLAP>  (1) 
10.149

>  <PUBCHEM_SHAPE_FINGERPRINT>  (1) 
10149128 111 18410862057198058373
12162725 195 18410853265400042439
122479 349 18334019418700000282
12932764 1 16988838401745284663
14123260 362 17988937643057292993
14325111 11 18410856568240565998
15477762 27 10951755387709954178
15775835 57 18410577283686477376
170605 34 18408888403830280611
18186145 218 18186519886784466334
20281407 28 8790887375843065151
20711983 171 18343582945089561310
20871999 31 17060047186366256911
212847 35 18342454811984536104
23380061 81 18334017159932376354
23402539 116 18060132146405849924
23402655 69 18131354102716143996
23500284 214 18187372051018611187
8199 26 18341618062208662033

>  <PUBCHEM_SHAPE_MULTIPOLES>  (1) 
208.93
8.63
1.55
0.72
0
0.1
0
4.61
0
0
0
0
-0.04
-0.85

>  <PUBCHEM_SHAPE_SELFOVERLAP>  (1) 
397.919

>  <PUBCHEM_SHAPE_VOLUME>  (1) 
126.9

>  <PUBCHEM_COORDINATE_TYPE>  (1) 
2
5
10

$$$$
