9752
     RDKit          3D

  8  7  0  0  0  0  0  0  0  0999 V2000
   -2.9795   -1.0326    0.3308 F   0  0  0  0  0  0  0  0  0  0  0  0
    2.3905   -1.1974   -0.3703 O   0  0  0  0  0  0  0  0  0  0  0  0
    2.5978    0.6031    0.8826 O   0  0  0  0  0  0  0  0  0  0  0  0
    2.0311   -0.0662    0.0008 N   0  0  0  0  0  0  0  0  0  0  0  0
   -0.3750    0.1508    0.1252 C   0  0  0  0  0  0  0  0  0  0  0  0
   -1.6409    0.6862   -0.5455 C   0  0  0  0  0  0  0  0  0  0  0  0
    0.8637    0.5353   -0.6652 C   0  0  0  0  0  0  0  0  0  0  0  0
   -2.8877    0.3208    0.2416 C   0  0  0  0  0  0  0  0  0  0  0  0
  1  8  1  0
  2  4  1  0
  3  4  2  0
  4  7  1  0
  5  6  1  0
  5  7  1  0
  6  8  1  0
M  CHG  2   2  -1   4   1
M  END
>  <PUBCHEM_COMPOUND_CID>  (1) 
9752

>  <PUBCHEM_CONFORMER_RMSD>  (1) 
0.6

>  <PUBCHEM_CONFORMER_DIVERSEORDER>  (1) 
1
14
15
7
22
20
9
11
6
16
21
13
18
4
19
3
12
10
8
17
5
2

>  <PUBCHEM_MMFF94_PARTIAL_CHARGES>  (1) 
6
1 -0.34
2 -0.52
3 -0.52
4 0.8
7 0.24
8 0.34

>  <PUBCHEM_EFFECTIVE_ROTOR_COUNT>  (1) 
4

>  <PUBCHEM_PHARMACOPHORE_FEATURES>  (1) 
3
1 2 acceptor
1 2 anion
1 3 acceptor

>  <PUBCHEM_HEAVY_ATOM_COUNT>  (1) 
8

>  <PUBCHEM_ATOM_DEF_STEREO_COUNT>  (1) 
0

>  <PUBCHEM_ATOM_UDEF_STEREO_COUNT>  (1) 
0

>  <PUBCHEM_BOND_DEF_STEREO_COUNT>  (1) 
0

>  <PUBCHEM_BOND_UDEF_STEREO_COUNT>  (1) 
0

>  <PUBCHEM_ISOTOPIC_ATOM_COUNT>  (1) 
0

>  <PUBCHEM_COMPONENT_COUNT>  (1) 
1

>  <PUBCHEM_CACTVS_TAUTO_COUNT>  (1) 
2

>  <PUBCHEM_CONFORMER_ID>  (1) 
0000261800000001

>  <PUBCHEM_MMFF94_ENERGY>  (1) 
3.0558

>  <PUBCHEM_FEATURE_SELFOVERLAP>  (1) 
15.302

>  <PUBCHEM_SHAPE_FINGERPRINT>  (1) 
10857977 72 18336820974480580265
12897270 3 8214142962524576629
12932764 1 17632573850988568180
14325111 11 18412263926149731597
14390081 3 10519983747124526911
29004967 10 18342174462062396824
3248919 1 18335417971905356901
5460574 1 10807934864286478845

>  <PUBCHEM_SHAPE_MULTIPOLES>  (1) 
140.64
4.9
0.98
0.79
0.86
0.18
0.02
0.92
0.73
0.06
-0.07
-0.23
-0.09
0.35

>  <PUBCHEM_SHAPE_SELFOVERLAP>  (1) 
254.062

>  <PUBCHEM_SHAPE_VOLUME>  (1) 
90.8

>  <PUBCHEM_COORDINATE_TYPE>  (1) 
2
5
10

$$$$
