9755
     RDKit          3D

  6  5  0  0  0  0  0  0  0  0999 V2000
    2.2960   -0.8885    0.2514 F   0  0  0  0  0  0  0  0  0  0  0  0
   -2.7975   -0.5310   -0.1196 O   0  0  0  0  0  0  0  0  0  0  0  0
   -0.4408   -0.1196   -0.2226 C   0  0  0  0  0  0  0  0  0  0  0  0
    0.6944    0.8265    0.1626 C   0  0  0  0  0  0  0  0  0  0  0  0
   -1.7902    0.3983    0.2551 C   0  0  0  0  0  0  0  0  0  0  0  0
    2.0381    0.3144   -0.3270 C   0  0  0  0  0  0  0  0  0  0  0  0
  1  6  1  0
  2  5  1  0
  3  4  1  0
  3  5  1  0
  4  6  1  0
M  END
>  <PUBCHEM_COMPOUND_CID>  (1) 
9755

>  <PUBCHEM_CONFORMER_RMSD>  (1) 
0.4

>  <PUBCHEM_CONFORMER_DIVERSEORDER>  (1) 
1
25
17
21
2
15
23
19
14
24
3
16
20
18
22
10
13
12
5
4
11
7
9
8
6

>  <PUBCHEM_MMFF94_PARTIAL_CHARGES>  (1) 
5
1 -0.34
15 0.4
2 -0.68
5 0.28
6 0.34

>  <PUBCHEM_EFFECTIVE_ROTOR_COUNT>  (1) 
3

>  <PUBCHEM_PHARMACOPHORE_FEATURES>  (1) 
2
1 2 acceptor
1 2 donor

>  <PUBCHEM_HEAVY_ATOM_COUNT>  (1) 
6

>  <PUBCHEM_ATOM_DEF_STEREO_COUNT>  (1) 
0

>  <PUBCHEM_ATOM_UDEF_STEREO_COUNT>  (1) 
0

>  <PUBCHEM_BOND_DEF_STEREO_COUNT>  (1) 
0

>  <PUBCHEM_BOND_UDEF_STEREO_COUNT>  (1) 
0

>  <PUBCHEM_ISOTOPIC_ATOM_COUNT>  (1) 
0

>  <PUBCHEM_COMPONENT_COUNT>  (1) 
1

>  <PUBCHEM_CACTVS_TAUTO_COUNT>  (1) 
1

>  <PUBCHEM_CONFORMER_ID>  (1) 
0000261B00000001

>  <PUBCHEM_MMFF94_ENERGY>  (1) 
0.1509

>  <PUBCHEM_FEATURE_SELFOVERLAP>  (1) 
10.148

>  <PUBCHEM_SHAPE_FINGERPRINT>  (1) 
139733 1 9079110059919203264
23552449 11 18131343141859397440
29004967 10 18113341920441448256
5460574 1 8646775486301884613

>  <PUBCHEM_SHAPE_MULTIPOLES>  (1) 
110.33
3.76
0.88
0.64
0.91
0.02
0.01
-0.79
0.01
-0.19
-0.05
-0.05
0.02
-0.16

>  <PUBCHEM_SHAPE_SELFOVERLAP>  (1) 
189.435

>  <PUBCHEM_SHAPE_VOLUME>  (1) 
73.9

>  <PUBCHEM_COORDINATE_TYPE>  (1) 
2
5
10

$$$$
