9757
     RDKit          3D

  9  8  0  0  0  0  0  0  0  0999 V2000
   -3.7738    0.1713    0.3742 F   0  0  0  0  0  0  0  0  0  0  0  0
    2.4497    0.7145    1.0983 O   0  0  0  0  0  0  0  0  0  0  0  0
    1.2416    0.0324   -0.7724 N   0  0  0  0  0  0  0  0  0  0  0  0
   -0.9730    0.7228    0.0535 C   0  0  0  0  0  0  0  0  0  0  0  0
   -1.6967   -0.5177   -0.4786 C   0  0  0  0  0  0  0  0  0  0  0  0
    0.2591    1.0808   -0.7711 C   0  0  0  0  0  0  0  0  0  0  0  0
   -2.9004   -0.8703    0.3792 C   0  0  0  0  0  0  0  0  0  0  0  0
    2.2600   -0.0637    0.1672 C   0  0  0  0  0  0  0  0  0  0  0  0
    3.1335   -1.2700   -0.0503 C   0  0  0  0  0  0  0  0  0  0  0  0
  1  7  1  0
  2  8  2  0
  3  6  1  0
  3  8  1  0
  4  5  1  0
  4  6  1  0
  5  7  1  0
  8  9  1  0
M  END
>  <PUBCHEM_COMPOUND_CID>  (1) 
9757

>  <PUBCHEM_CONFORMER_RMSD>  (1) 
0.6

>  <PUBCHEM_CONFORMER_DIVERSEORDER>  (1) 
3
43
32
40
27
45
33
41
13
28
39
12
44
30
20
42
8
17
46
14
9
19
37
34
5
16
10
21
15
7
36
2
11
31
23
24
1
6
38
4
29
26
35
25
22
18

>  <PUBCHEM_MMFF94_PARTIAL_CHARGES>  (1) 
8
1 -0.34
18 0.37
2 -0.57
3 -0.73
6 0.3
7 0.34
8 0.57
9 0.06

>  <PUBCHEM_EFFECTIVE_ROTOR_COUNT>  (1) 
5

>  <PUBCHEM_PHARMACOPHORE_FEATURES>  (1) 
2
1 2 acceptor
1 3 donor

>  <PUBCHEM_HEAVY_ATOM_COUNT>  (1) 
9

>  <PUBCHEM_ATOM_DEF_STEREO_COUNT>  (1) 
0

>  <PUBCHEM_ATOM_UDEF_STEREO_COUNT>  (1) 
0

>  <PUBCHEM_BOND_DEF_STEREO_COUNT>  (1) 
0

>  <PUBCHEM_BOND_UDEF_STEREO_COUNT>  (1) 
0

>  <PUBCHEM_ISOTOPIC_ATOM_COUNT>  (1) 
0

>  <PUBCHEM_COMPONENT_COUNT>  (1) 
1

>  <PUBCHEM_CACTVS_TAUTO_COUNT>  (1) 
2

>  <PUBCHEM_CONFORMER_ID>  (1) 
0000261D00000003

>  <PUBCHEM_MMFF94_ENERGY>  (1) 
2.3301

>  <PUBCHEM_FEATURE_SELFOVERLAP>  (1) 
10.148

>  <PUBCHEM_SHAPE_FINGERPRINT>  (1) 
11062470 55 17988925587152469545
12897270 3 13045952299859914550
12932764 1 18060414733372973396
14390081 3 11167946857205233271
15310529 11 14129053720728140891
177051 138 18409732884863928219
20653085 51 8285931223495302263
21028194 46 12103852258342592629
21293036 1 15647062559785550358

>  <PUBCHEM_SHAPE_MULTIPOLES>  (1) 
167.09
5.74
1.17
0.88
1.89
0.07
0.05
1.97
1.11
-0.28
-0.07
-0.26
-0.11
0.22

>  <PUBCHEM_SHAPE_SELFOVERLAP>  (1) 
302.643

>  <PUBCHEM_SHAPE_VOLUME>  (1) 
106.7

>  <PUBCHEM_COORDINATE_TYPE>  (1) 
2
5
10

$$$$
