9760
     RDKit          3D

  7  6  0  0  0  0  0  0  0  0999 V2000
    2.9001   -0.9064    0.2937 F   0  0  0  0  0  0  0  0  0  0  0  0
    0.1997   -0.1173   -0.2646 C   0  0  0  0  0  0  0  0  0  0  0  0
   -1.1673    0.4208    0.1610 C   0  0  0  0  0  0  0  0  0  0  0  0
    1.3252    0.8301    0.1545 C   0  0  0  0  0  0  0  0  0  0  0  0
   -2.2894   -0.5409   -0.2290 C   0  0  0  0  0  0  0  0  0  0  0  0
    2.6847    0.3079   -0.2781 C   0  0  0  0  0  0  0  0  0  0  0  0
   -3.6530    0.0059    0.1625 C   0  0  0  0  0  0  0  0  0  0  0  0
  1  6  1  0
  2  3  1  0
  2  4  1  0
  3  5  1  0
  4  6  1  0
  5  7  1  0
M  END
>  <PUBCHEM_COMPOUND_CID>  (1) 
9760

>  <PUBCHEM_CONFORMER_RMSD>  (1) 
0.6

>  <PUBCHEM_CONFORMER_DIVERSEORDER>  (1) 
1
29
31
17
2
21
32
24
3
16
19
30
15
9
26
13
18
27
4
20
7
25
12
8
23
22
28
14
10
11
5
6

>  <PUBCHEM_MMFF94_PARTIAL_CHARGES>  (1) 
2
1 -0.34
6 0.34

>  <PUBCHEM_EFFECTIVE_ROTOR_COUNT>  (1) 
4

>  <PUBCHEM_PHARMACOPHORE_FEATURES>  (1) 
2
1 7 hydrophobe
4 2 3 4 5 hydrophobe

>  <PUBCHEM_HEAVY_ATOM_COUNT>  (1) 
7

>  <PUBCHEM_ATOM_DEF_STEREO_COUNT>  (1) 
0

>  <PUBCHEM_ATOM_UDEF_STEREO_COUNT>  (1) 
0

>  <PUBCHEM_BOND_DEF_STEREO_COUNT>  (1) 
0

>  <PUBCHEM_BOND_UDEF_STEREO_COUNT>  (1) 
0

>  <PUBCHEM_ISOTOPIC_ATOM_COUNT>  (1) 
0

>  <PUBCHEM_COMPONENT_COUNT>  (1) 
1

>  <PUBCHEM_CACTVS_TAUTO_COUNT>  (1) 
1

>  <PUBCHEM_CONFORMER_ID>  (1) 
0000262000000001

>  <PUBCHEM_MMFF94_ENERGY>  (1) 
-3.2789

>  <PUBCHEM_FEATURE_SELFOVERLAP>  (1) 
10.149

>  <PUBCHEM_SHAPE_FINGERPRINT>  (1) 
11062470 55 13039190303528336243
12932764 1 18341326773046732357
14325111 11 18411138069229433223
14390081 3 8574712398985032390
20651381 32 18334850615199295941
21293036 1 14345800452195931142
5460574 1 8862949372243349533

>  <PUBCHEM_SHAPE_MULTIPOLES>  (1) 
136.78
5.76
0.87
0.65
1.56
0.01
-0.02
0.63
0.24
-0.27
0.04
-0.01
0
-0.16

>  <PUBCHEM_SHAPE_SELFOVERLAP>  (1) 
235.433

>  <PUBCHEM_SHAPE_VOLUME>  (1) 
91.7

>  <PUBCHEM_COORDINATE_TYPE>  (1) 
2
5
10

$$$$
