9765
     RDKit          3D

  8  7  0  0  0  0  0  0  0  0999 V2000
   -4.5336   -0.6489    0.1954 Br  0  0  0  0  0  0  0  0  0  0  0  0
    3.4822   -1.0212   -0.3805 F   0  0  0  0  0  0  0  0  0  0  0  0
   -0.4616    0.6292   -0.2128 C   0  0  0  0  0  0  0  0  0  0  0  0
    0.8239   -0.0793    0.2209 C   0  0  0  0  0  0  0  0  0  0  0  0
   -1.6936   -0.2390    0.0651 C   0  0  0  0  0  0  0  0  0  0  0  0
    2.0513    0.8035   -0.0119 C   0  0  0  0  0  0  0  0  0  0  0  0
   -3.0024    0.4634   -0.2607 C   0  0  0  0  0  0  0  0  0  0  0  0
    3.3338    0.0924    0.3846 C   0  0  0  0  0  0  0  0  0  0  0  0
  1  7  1  0
  2  8  1  0
  3  4  1  0
  3  5  1  0
  4  6  1  0
  5  7  1  0
  6  8  1  0
M  END
>  <PUBCHEM_COMPOUND_CID>  (1) 
9765

>  <PUBCHEM_CONFORMER_RMSD>  (1) 
0.6

>  <PUBCHEM_CONFORMER_DIVERSEORDER>  (1) 
1
71
73
46
37
77
2
39
16
57
83
26
49
72
34
82
20
28
32
40
81
4
65
22
84
9
76
43
18
10
27
3
66
74
52
78
29
41
63
15
6
42
69
67
47
31
30
23
68
21
36
58
80
13
8
55
38
64
11
59
44
62
79
24
70
33
35
51
14
5
50
75
12
61
53
19
25
54
7
56
17
48
60
45

>  <PUBCHEM_MMFF94_PARTIAL_CHARGES>  (1) 
4
1 -0.23
2 -0.34
7 0.23
8 0.34

>  <PUBCHEM_EFFECTIVE_ROTOR_COUNT>  (1) 
5

>  <PUBCHEM_PHARMACOPHORE_FEATURES>  (1) 
2
1 1 hydrophobe
4 3 4 5 6 hydrophobe

>  <PUBCHEM_HEAVY_ATOM_COUNT>  (1) 
8

>  <PUBCHEM_ATOM_DEF_STEREO_COUNT>  (1) 
0

>  <PUBCHEM_ATOM_UDEF_STEREO_COUNT>  (1) 
0

>  <PUBCHEM_BOND_DEF_STEREO_COUNT>  (1) 
0

>  <PUBCHEM_BOND_UDEF_STEREO_COUNT>  (1) 
0

>  <PUBCHEM_ISOTOPIC_ATOM_COUNT>  (1) 
0

>  <PUBCHEM_COMPONENT_COUNT>  (1) 
1

>  <PUBCHEM_CACTVS_TAUTO_COUNT>  (1) 
1

>  <PUBCHEM_CONFORMER_ID>  (1) 
0000262500000001

>  <PUBCHEM_MMFF94_ENERGY>  (1) 
-0.3446

>  <PUBCHEM_FEATURE_SELFOVERLAP>  (1) 
10.149

>  <PUBCHEM_SHAPE_FINGERPRINT>  (1) 
11062470 55 9367349236585336201
12032990 46 18335423469531872499
12932764 1 16588010347044126277
14325111 11 18410291419342848001
177051 138 18411419513909296687
17834076 25 12031789179678822505
18342897 14 15698000751509248931
190213 19 18409727370109881529
20211469 26 18335138709195324297
20719005 15 18407759248728208411
21293036 1 15430037664433533711
22485316 2 18343297089499494055

>  <PUBCHEM_SHAPE_MULTIPOLES>  (1) 
163.3
8.4
0.93
0.68
3.02
0.04
0.02
2.08
0.23
-0.11
-0.06
0.01
0.02
0.27

>  <PUBCHEM_SHAPE_SELFOVERLAP>  (1) 
273.429

>  <PUBCHEM_SHAPE_VOLUME>  (1) 
112.3

>  <PUBCHEM_COORDINATE_TYPE>  (1) 
2
5
10

$$$$
