9771
     RDKit          3D

 10  9  0  0  0  0  0  0  0  0999 V2000
   -4.3499    1.1082   -0.3885 F   0  0  0  0  0  0  0  0  0  0  0  0
    1.6879   -0.4001   -0.1325 O   0  0  0  0  0  0  0  0  0  0  0  0
   -1.9051   -0.0031    0.2280 O   0  0  0  0  0  0  0  0  0  0  0  0
    5.2098    0.4772    0.0544 O   0  0  0  0  0  0  0  0  0  0  0  0
    0.4754    0.2504    0.2214 C   0  0  0  0  0  0  0  0  0  0  0  0
   -0.6921   -0.6455   -0.1450 C   0  0  0  0  0  0  0  0  0  0  0  0
    2.8197    0.4069    0.1696 C   0  0  0  0  0  0  0  0  0  0  0  0
   -3.0365   -0.8002   -0.0930 C   0  0  0  0  0  0  0  0  0  0  0  0
    4.0791   -0.3380   -0.2289 C   0  0  0  0  0  0  0  0  0  0  0  0
   -4.2883   -0.0559    0.3144 C   0  0  0  0  0  0  0  0  0  0  0  0
  1 10  1  0
  2  5  1  0
  2  7  1  0
  3  6  1  0
  3  8  1  0
  4  9  1  0
  5  6  1  0
  7  9  1  0
  8 10  1  0
M  END
>  <PUBCHEM_COMPOUND_CID>  (1) 
9771

>  <PUBCHEM_CONFORMER_RMSD>  (1) 
0.6

>  <PUBCHEM_CONFORMER_DIVERSEORDER>  (1) 
7
98
236
217
148
40
241
142
160
186
132
117
16
212
121
179
123
137
175
3
52
240
228
129
153
11
206
113
208
19
157
222
233
196
192
38
43
211
230
9
180
247
93
225
131
223
122
45
193
243
59
134
238
133
66
63
83
191
149
79
78
10
118
70
58
112
227
125
69
207
55
187
218
119
220
54
60
226
244
224
50
213
190
209
62
221
176
219
200
61
185
15
161
152
189
163
199
107
41
168
84
124
25
100
33
71
162
48
245
167
23
111
86
195
140
99
147
150
234
26
215
64
126
32
115
246
42
30
141
39
172
114
205
194
173
103
18
85
116
94
151
232
57
154
174
101
1
214
74
24
44
158
183
72
102
229
47
97
14
188
8
231
22
108
90
80
56
197
198
12
201
5
237
91
242
46
67
136
76
28
165
17
159
235
89
75
2
81
130
21
68
146
96
120
170
105
144
53
82
49
92
135
106
138
31
181
177
204
182
169
145
210
143
35
104
110
239
77
65
127
13
29
128
164
166
27
171
6
87
20
155
34
88
109
184
156
37
202
4
73
178
51
36
216
203
95
139

>  <PUBCHEM_MMFF94_PARTIAL_CHARGES>  (1) 
11
1 -0.34
10 0.34
2 -0.56
23 0.4
3 -0.56
4 -0.68
5 0.28
6 0.28
7 0.28
8 0.28
9 0.28

>  <PUBCHEM_EFFECTIVE_ROTOR_COUNT>  (1) 
7

>  <PUBCHEM_PHARMACOPHORE_FEATURES>  (1) 
4
1 2 acceptor
1 3 acceptor
1 4 acceptor
1 4 donor

>  <PUBCHEM_HEAVY_ATOM_COUNT>  (1) 
10

>  <PUBCHEM_ATOM_DEF_STEREO_COUNT>  (1) 
0

>  <PUBCHEM_ATOM_UDEF_STEREO_COUNT>  (1) 
0

>  <PUBCHEM_BOND_DEF_STEREO_COUNT>  (1) 
0

>  <PUBCHEM_BOND_UDEF_STEREO_COUNT>  (1) 
0

>  <PUBCHEM_ISOTOPIC_ATOM_COUNT>  (1) 
0

>  <PUBCHEM_COMPONENT_COUNT>  (1) 
1

>  <PUBCHEM_CACTVS_TAUTO_COUNT>  (1) 
1

>  <PUBCHEM_CONFORMER_ID>  (1) 
0000262B00000007

>  <PUBCHEM_MMFF94_ENERGY>  (1) 
12.1078

>  <PUBCHEM_FEATURE_SELFOVERLAP>  (1) 
20.297

>  <PUBCHEM_SHAPE_FINGERPRINT>  (1) 
11062470 55 18411138043275110562
14123238 8 10953459630701137474
15501527 16 18411140191444892185
17834076 25 18410293613986629810
18342897 14 18187364333089116956
20645477 70 17775011128839616246
20719005 15 18412263951724440995
20767249 213 17894909612558877893
20828058 44 15574719113903689019
21119208 17 17918275359102166190
22485316 2 18343863325060874254
23402539 116 18342731927316006310
42788 4 18409167723033666674

>  <PUBCHEM_SHAPE_MULTIPOLES>  (1) 
180.91
10.72
0.85
0.62
3.04
0.02
0.01
1.63
-0.3
-0.43
-0.05
-0.1
0.01
0.22

>  <PUBCHEM_SHAPE_SELFOVERLAP>  (1) 
323.036

>  <PUBCHEM_SHAPE_VOLUME>  (1) 
117.4

>  <PUBCHEM_COORDINATE_TYPE>  (1) 
2
5
10

$$$$
