9773
     RDKit          3D

  6  5  0  0  0  0  0  0  0  0999 V2000
   -1.4652   -0.8591    0.0139 F   0  0  0  0  0  0  0  0  0  0  0  0
   -0.5124    0.7818    1.0866 F   0  0  0  0  0  0  0  0  0  0  0  0
   -0.5256    0.7624   -1.0995 F   0  0  0  0  0  0  0  0  0  0  0  0
    2.0276    0.1167    0.0000 N   0  0  0  0  0  0  0  0  0  0  0  0
    0.8866   -0.7889   -0.0008 C   0  0  0  0  0  0  0  0  0  0  0  0
   -0.4109   -0.0128   -0.0001 C   0  0  0  0  0  0  0  0  0  0  0  0
  1  6  1  0
  2  6  1  0
  3  6  1  0
  4  5  1  0
  5  6  1  0
M  END
>  <PUBCHEM_COMPOUND_CID>  (1) 
9773

>  <PUBCHEM_CONFORMER_RMSD>  (1) 
0.4

>  <PUBCHEM_CONFORMER_DIVERSEORDER>  (1) 
1

>  <PUBCHEM_MMFF94_PARTIAL_CHARGES>  (1) 
8
1 -0.34
10 0.36
2 -0.34
3 -0.34
4 -0.99
5 0.27
6 1.02
9 0.36

>  <PUBCHEM_EFFECTIVE_ROTOR_COUNT>  (1) 
1

>  <PUBCHEM_PHARMACOPHORE_FEATURES>  (1) 
2
1 4 cation
1 4 donor

>  <PUBCHEM_HEAVY_ATOM_COUNT>  (1) 
6

>  <PUBCHEM_ATOM_DEF_STEREO_COUNT>  (1) 
0

>  <PUBCHEM_ATOM_UDEF_STEREO_COUNT>  (1) 
0

>  <PUBCHEM_BOND_DEF_STEREO_COUNT>  (1) 
0

>  <PUBCHEM_BOND_UDEF_STEREO_COUNT>  (1) 
0

>  <PUBCHEM_ISOTOPIC_ATOM_COUNT>  (1) 
0

>  <PUBCHEM_COMPONENT_COUNT>  (1) 
1

>  <PUBCHEM_CACTVS_TAUTO_COUNT>  (1) 
1

>  <PUBCHEM_CONFORMER_ID>  (1) 
0000262D00000001

>  <PUBCHEM_MMFF94_ENERGY>  (1) 
2.6871

>  <PUBCHEM_FEATURE_SELFOVERLAP>  (1) 
10.148

>  <PUBCHEM_SHAPE_FINGERPRINT>  (1) 
139733 1 9295022257587371563
20096714 4 17629493990360058760
21015797 1 11386670501763087314
24536 1 17986946358785110234
29004967 10 17603877748712995091
5943 1 12648314679841672449

>  <PUBCHEM_SHAPE_MULTIPOLES>  (1) 
96.67
1.77
0.93
0.86
0.8
0.08
0.01
0.14
0
-0.14
-0.01
-0.18
-0.24
0

>  <PUBCHEM_SHAPE_SELFOVERLAP>  (1) 
177.157

>  <PUBCHEM_SHAPE_VOLUME>  (1) 
62.6

>  <PUBCHEM_COORDINATE_TYPE>  (1) 
2
5
10

$$$$
