9778
     RDKit          3D

 22 21  0  0  0  0  0  0  0  0999 V2000
   -0.7478    1.8121    0.7805 F   0  0  0  0  0  0  0  0  0  0  0  0
    0.8502    0.8755    1.9198 F   0  0  0  0  0  0  0  0  0  0  0  0
    0.0508   -1.6062    1.0147 F   0  0  0  0  0  0  0  0  0  0  0  0
   -1.4545   -0.4888    2.1235 F   0  0  0  0  0  0  0  0  0  0  0  0
    1.6025    2.0129   -0.3951 F   0  0  0  0  0  0  0  0  0  0  0  0
    0.1735    0.8275   -1.5269 F   0  0  0  0  0  0  0  0  0  0  0  0
   -1.0973   -1.0041   -1.3331 F   0  0  0  0  0  0  0  0  0  0  0  0
   -2.4147   -1.9552    0.1142 F   0  0  0  0  0  0  0  0  0  0  0  0
    1.4158   -1.4779   -0.7937 F   0  0  0  0  0  0  0  0  0  0  0  0
    2.6679   -0.0112   -1.7919 F   0  0  0  0  0  0  0  0  0  0  0  0
   -2.2621    1.4554   -0.7275 F   0  0  0  0  0  0  0  0  0  0  0  0
   -3.6653   -0.0740   -1.4063 F   0  0  0  0  0  0  0  0  0  0  0  0
   -3.5664    0.4485    0.7014 F   0  0  0  0  0  0  0  0  0  0  0  0
    3.9201   -1.3865    0.1602 F   0  0  0  0  0  0  0  0  0  0  0  0
    3.7777    0.7492    0.5558 F   0  0  0  0  0  0  0  0  0  0  0  0
    0.0786    0.7279    0.8135 C   0  0  0  0  0  0  0  0  0  0  0  0
   -0.7761   -0.5247    0.9473 C   0  0  0  0  0  0  0  0  0  0  0  0
    0.9689    0.8051   -0.4207 C   0  0  0  0  0  0  0  0  0  0  0  0
   -1.7711   -0.7880   -0.1734 C   0  0  0  0  0  0  0  0  0  0  0  0
    2.0189   -0.2748   -0.6233 C   0  0  0  0  0  0  0  0  0  0  0  0
   -2.8208    0.2681   -0.4125 C   0  0  0  0  0  0  0  0  0  0  0  0
    3.0512   -0.3908    0.4732 C   0  0  0  0  0  0  0  0  0  0  0  0
  1 16  1  0
  2 16  1  0
  3 17  1  0
  4 17  1  0
  5 18  1  0
  6 18  1  0
  7 19  1  0
  8 19  1  0
  9 20  1  0
 10 20  1  0
 11 21  1  0
 12 21  1  0
 13 21  1  0
 14 22  1  0
 15 22  1  0
 16 17  1  0
 16 18  1  0
 17 19  1  0
 18 20  1  0
 19 21  1  0
 20 22  1  0
M  END
>  <PUBCHEM_COMPOUND_CID>  (1) 
9778

>  <PUBCHEM_CONFORMER_RMSD>  (1) 
0.8

>  <PUBCHEM_CONFORMER_DIVERSEORDER>  (1) 
1
18
28
30
33
11
6
15
14
31
8
20
21
5
4
22
39
2
37
9
17
35
41
13
10
32
3
34
26
40
12
38
29
36
25
16
19
24
27
23
7

>  <PUBCHEM_MMFF94_PARTIAL_CHARGES>  (1) 
22
1 -0.34
10 -0.34
11 -0.34
12 -0.34
13 -0.34
14 -0.34
15 -0.34
16 0.68
17 0.68
18 0.68
19 0.68
2 -0.34
20 0.68
21 1.02
22 0.68
3 -0.34
4 -0.34
5 -0.34
6 -0.34
7 -0.34
8 -0.34
9 -0.34

>  <PUBCHEM_EFFECTIVE_ROTOR_COUNT>  (1) 
6

>  <PUBCHEM_PHARMACOPHORE_FEATURES>  (1) 
0

>  <PUBCHEM_HEAVY_ATOM_COUNT>  (1) 
22

>  <PUBCHEM_ATOM_DEF_STEREO_COUNT>  (1) 
0

>  <PUBCHEM_ATOM_UDEF_STEREO_COUNT>  (1) 
0

>  <PUBCHEM_BOND_DEF_STEREO_COUNT>  (1) 
0

>  <PUBCHEM_BOND_UDEF_STEREO_COUNT>  (1) 
0

>  <PUBCHEM_ISOTOPIC_ATOM_COUNT>  (1) 
0

>  <PUBCHEM_COMPONENT_COUNT>  (1) 
1

>  <PUBCHEM_CACTVS_TAUTO_COUNT>  (1) 
1

>  <PUBCHEM_CONFORMER_ID>  (1) 
0000263200000001

>  <PUBCHEM_MMFF94_ENERGY>  (1) 
14.0708

>  <PUBCHEM_FEATURE_SELFOVERLAP>  (1) 
0

>  <PUBCHEM_SHAPE_FINGERPRINT>  (1) 
10863032 1 18269269226163721772
10922523 26 17822570504071862542
10948715 1 18197212542854318749
12423570 1 10906513138595674217
12491281 212 18187938235225058389
12808571 1 15213304101483062245
13024252 1 17749116577642999123
13296908 3 17988933292123520582
13571099 22 18410290307178439918
13581323 91 17894353293222376609
13693222 15 14979963553355775718
14115302 16 18260832591850090990
14181834 199 17345176986418729832
144361 1 18409729521772348433
14943859 89 18259981570145409555
16945 1 18340499880083288941
17834072 14 17917706898763693960
18186145 218 18408608067003715404
19010151 120 17275379902424794610
200 152 16773792576421661854
20201158 50 18342455937070717174
20525323 117 16559040367414935546
21501502 16 18191310579031489485
22802520 49 18041005097699908785
23388829 49 14907892807964476904
23402539 116 18269261396396260276
23419403 2 17628597978588894856
23559900 14 18410568488521681954
2748010 2 18195813096316512851
296302 2 17561360699213453320
3286 77 18041555961420375303
528886 8 17821440244683459083
69090 78 18412256238284963455
81228 2 17487640549152715712

>  <PUBCHEM_SHAPE_MULTIPOLES>  (1) 
343.64
5.3
1.58
1.5
0.93
0.02
0.18
-0.54
-0.72
0.02
0.05
-0.14
0.03
0.12

>  <PUBCHEM_SHAPE_SELFOVERLAP>  (1) 
742.269

>  <PUBCHEM_SHAPE_VOLUME>  (1) 
184.6

>  <PUBCHEM_COORDINATE_TYPE>  (1) 
2
5
10

$$$$
