9784
     RDKit          3D

 18 19  0  0  0  0  0  0  0  0999 V2000
   -3.3767    2.6718   -0.0075 Cl  0  0  0  0  0  0  0  0  0  0  0  0
    0.8851   -0.5661   -2.4258 O   0  0  0  0  0  0  0  0  0  0  0  0
    0.9315   -0.7857    2.3626 O   0  0  0  0  0  0  0  0  0  0  0  0
    3.0772    2.5679    0.0960 O   0  0  0  0  0  0  0  0  0  0  0  0
    1.9388    1.0030   -1.1374 N   0  0  0  0  0  0  0  0  0  0  0  0
    1.9591    0.8973    1.2032 N   0  0  0  0  0  0  0  0  0  0  0  0
    0.5591   -0.7269   -0.0305 C   0  0  0  0  0  0  0  0  0  0  0  0
    0.8031   -2.2408   -0.1018 C   0  0  0  0  0  0  0  0  0  0  0  0
   -0.9227   -0.4768   -0.0053 C   0  0  0  0  0  0  0  0  0  0  0  0
    1.1399   -0.1134   -1.3078 C   0  0  0  0  0  0  0  0  0  0  0  0
    1.1644   -0.2318    1.2861 C   0  0  0  0  0  0  0  0  0  0  0  0
    2.2837   -2.5552   -0.0968 C   0  0  0  0  0  0  0  0  0  0  0  0
   -1.3990    0.8281   -0.0170 C   0  0  0  0  0  0  0  0  0  0  0  0
   -1.7992   -1.5540    0.0287 C   0  0  0  0  0  0  0  0  0  0  0  0
    2.3667    1.5618    0.0568 C   0  0  0  0  0  0  0  0  0  0  0  0
   -2.7745    1.0596    0.0056 C   0  0  0  0  0  0  0  0  0  0  0  0
   -3.1744   -1.3228    0.0514 C   0  0  0  0  0  0  0  0  0  0  0  0
   -3.6621   -0.0159    0.0397 C   0  0  0  0  0  0  0  0  0  0  0  0
  1 16  1  0
  2 10  2  0
  3 11  2  0
  4 15  2  0
  5 10  1  0
  5 15  1  0
  6 11  1  0
  6 15  1  0
  7  8  1  0
  7  9  1  0
  7 10  1  0
  7 11  1  0
  8 12  1  0
  9 13  2  0
  9 14  1  0
 13 16  1  0
 14 17  2  0
 16 18  2  0
 17 18  1  0
M  END
>  <PUBCHEM_COMPOUND_CID>  (1) 
9784

>  <PUBCHEM_CONFORMER_RMSD>  (1) 
0.6

>  <PUBCHEM_CONFORMER_DIVERSEORDER>  (1) 
1
11
2
7
10
9
5
4
8
6
3

>  <PUBCHEM_MMFF94_PARTIAL_CHARGES>  (1) 
22
1 -0.18
10 0.57
11 0.57
13 -0.15
14 -0.15
15 0.69
16 0.18
17 -0.15
18 -0.15
2 -0.57
24 0.37
25 0.37
26 0.15
27 0.15
28 0.15
29 0.15
3 -0.57
4 -0.57
5 -0.49
6 -0.49
7 0.27
9 -0.14

>  <PUBCHEM_EFFECTIVE_ROTOR_COUNT>  (1) 
2.6

>  <PUBCHEM_PHARMACOPHORE_FEATURES>  (1) 
8
1 12 hydrophobe
1 2 acceptor
1 3 acceptor
1 4 acceptor
1 5 donor
1 6 donor
6 5 6 7 10 11 15 rings
6 9 13 14 16 17 18 rings

>  <PUBCHEM_HEAVY_ATOM_COUNT>  (1) 
18

>  <PUBCHEM_ATOM_DEF_STEREO_COUNT>  (1) 
0

>  <PUBCHEM_ATOM_UDEF_STEREO_COUNT>  (1) 
0

>  <PUBCHEM_BOND_DEF_STEREO_COUNT>  (1) 
0

>  <PUBCHEM_BOND_UDEF_STEREO_COUNT>  (1) 
0

>  <PUBCHEM_ISOTOPIC_ATOM_COUNT>  (1) 
0

>  <PUBCHEM_COMPONENT_COUNT>  (1) 
1

>  <PUBCHEM_CACTVS_TAUTO_COUNT>  (1) 
5

>  <PUBCHEM_CONFORMER_ID>  (1) 
0000263800000001

>  <PUBCHEM_MMFF94_ENERGY>  (1) 
54.6265

>  <PUBCHEM_FEATURE_SELFOVERLAP>  (1) 
40.638

>  <PUBCHEM_SHAPE_FINGERPRINT>  (1) 
10498660 4 18339642347514668149
10863032 1 18411420613626691790
10948715 1 18339079423056587920
12326174 3 16917064430178264782
12423570 1 13589831971464258186
12725867 57 17838611154723824748
13132413 78 17981887445582330718
13134695 92 17057220173871447026
13140716 1 18263930934592865105
13464514 151 18268725934555390676
13693222 7 18187088313048037061
13965767 371 17897724267346749509
14648413 74 18338518525891786451
14713325 29 16088750768914576622
14787075 74 16669368946101348619
15775835 57 18115584988370570297
16945 1 18123188171379445814
18981168 100 18336824195943448845
20233049 118 17539976074221465125
20511035 2 17916002599827243855
20600515 1 17484248452702051382
21501502 16 18343300345195526187
21524375 3 17986673873106469308
23114952 82 17773620293647941573
23402539 116 17982445207019917590
23419403 2 16189133629203848418
23559900 14 18268984311335107351
2748010 2 18337677425661922055
305870 269 18409448119910328078
350125 39 18338244752218640355
5845 1 8261275886286299550
7364860 26 18411419479623684214
74978 22 18266742377097964397
81228 2 16692143121952717278

>  <PUBCHEM_SHAPE_MULTIPOLES>  (1) 
344.73
5.23
2.68
1.41
4.03
0.62
0.03
2
-0.08
-0.75
-0.01
-1.01
-0.14
0.09

>  <PUBCHEM_SHAPE_SELFOVERLAP>  (1) 
736.226

>  <PUBCHEM_SHAPE_VOLUME>  (1) 
191.4

>  <PUBCHEM_COORDINATE_TYPE>  (1) 
2
5
10

$$$$
