9785
     RDKit          3D

 18 19  0  0  0  0  0  0  0  0999 V2000
    0.9299   -0.5583   -2.4218 O   0  0  0  0  0  0  0  0  0  0  0  0
    0.9291   -0.7450    2.3683 O   0  0  0  0  0  0  0  0  0  0  0  0
    3.4587    2.3203    0.0893 O   0  0  0  0  0  0  0  0  0  0  0  0
   -4.8398    0.9156    0.0319 O   0  0  0  0  0  0  0  0  0  0  0  0
    2.1523    0.8881   -1.1390 N   0  0  0  0  0  0  0  0  0  0  0  0
    2.1497    0.7988    1.2024 N   0  0  0  0  0  0  0  0  0  0  0  0
    0.5767   -0.6619   -0.0272 C   0  0  0  0  0  0  0  0  0  0  0  0
    0.6442   -2.1944   -0.0864 C   0  0  0  0  0  0  0  0  0  0  0  0
   -0.8663   -0.2418   -0.0116 C   0  0  0  0  0  0  0  0  0  0  0  0
    1.2303   -0.1296   -1.3057 C   0  0  0  0  0  0  0  0  0  0  0  0
    1.2293   -0.2301    1.2890 C   0  0  0  0  0  0  0  0  0  0  0  0
    2.0784   -2.6779   -0.0713 C   0  0  0  0  0  0  0  0  0  0  0  0
   -1.1871    1.1092   -0.0345 C   0  0  0  0  0  0  0  0  0  0  0  0
   -1.8617   -1.2098    0.0255 C   0  0  0  0  0  0  0  0  0  0  0  0
    2.6366    1.4028    0.0535 C   0  0  0  0  0  0  0  0  0  0  0  0
   -2.5262    1.4992   -0.0198 C   0  0  0  0  0  0  0  0  0  0  0  0
   -3.2010   -0.8200    0.0401 C   0  0  0  0  0  0  0  0  0  0  0  0
   -3.5333    0.5346    0.0173 C   0  0  0  0  0  0  0  0  0  0  0  0
  1 10  2  0
  2 11  2  0
  3 15  2  0
  4 18  1  0
  5 10  1  0
  5 15  1  0
  6 11  1  0
  6 15  1  0
  7  8  1  0
  7  9  1  0
  7 10  1  0
  7 11  1  0
  8 12  1  0
  9 13  2  0
  9 14  1  0
 13 16  1  0
 14 17  2  0
 16 18  2  0
 17 18  1  0
M  END
>  <PUBCHEM_COMPOUND_CID>  (1) 
9785

>  <PUBCHEM_CONFORMER_RMSD>  (1) 
0.6

>  <PUBCHEM_CONFORMER_DIVERSEORDER>  (1) 
1
4
3
2

>  <PUBCHEM_MMFF94_PARTIAL_CHARGES>  (1) 
23
1 -0.57
10 0.57
11 0.57
13 -0.15
14 -0.15
15 0.69
16 -0.15
17 -0.15
18 0.08
2 -0.57
24 0.15
25 0.15
26 0.37
27 0.37
28 0.15
29 0.15
3 -0.57
30 0.45
4 -0.53
5 -0.49
6 -0.49
7 0.27
9 -0.14

>  <PUBCHEM_EFFECTIVE_ROTOR_COUNT>  (1) 
2.6

>  <PUBCHEM_PHARMACOPHORE_FEATURES>  (1) 
9
1 1 acceptor
1 12 hydrophobe
1 2 acceptor
1 3 acceptor
1 4 donor
1 5 donor
1 6 donor
6 5 6 7 10 11 15 rings
6 9 13 14 16 17 18 rings

>  <PUBCHEM_HEAVY_ATOM_COUNT>  (1) 
18

>  <PUBCHEM_ATOM_DEF_STEREO_COUNT>  (1) 
0

>  <PUBCHEM_ATOM_UDEF_STEREO_COUNT>  (1) 
0

>  <PUBCHEM_BOND_DEF_STEREO_COUNT>  (1) 
0

>  <PUBCHEM_BOND_UDEF_STEREO_COUNT>  (1) 
0

>  <PUBCHEM_ISOTOPIC_ATOM_COUNT>  (1) 
0

>  <PUBCHEM_COMPONENT_COUNT>  (1) 
1

>  <PUBCHEM_CACTVS_TAUTO_COUNT>  (1) 
10

>  <PUBCHEM_CONFORMER_ID>  (1) 
0000263900000001

>  <PUBCHEM_MMFF94_ENERGY>  (1) 
56.0013

>  <PUBCHEM_FEATURE_SELFOVERLAP>  (1) 
45.713

>  <PUBCHEM_SHAPE_FINGERPRINT>  (1) 
107287 299 17632580465549206437
10863032 1 18412265072953563318
10922049 32 18339365279021155848
10948715 1 18267021841924615408
11031198 65 16989126456838460173
12326174 3 16988555754263536150
12423570 1 8946853491602053234
12788726 201 16741445215237588042
13132413 78 17838335177468958598
13134695 92 17128148569483479730
14178342 30 16515406278948199849
14648413 74 18265897960325347971
14787075 74 16813204840954189947
14817 1 13314819456029245046
15775835 57 18187362176857590737
16945 1 18122344841697577374
18186145 218 17916607438796916316
20511035 2 17772166657550316742
20559304 39 18264210205908545691
21452121 103 18336260142030613777
21501502 16 18272645723689182071
21524375 3 18115304621859347376
23402539 116 18200306757727573420
23419403 2 17195415531635820922
23557571 272 18199761412860643295
23559900 14 18268142072422120143
25 1 16845024509956698408
2748010 2 18335717034979132815
305870 269 18409166640659833582
4340502 62 17167583817562161361
7364860 26 18339080384865576638
81228 2 16906348873548680770

>  <PUBCHEM_SHAPE_MULTIPOLES>  (1) 
336.99
5.67
2.2
1.42
5.66
0.54
-0.02
-2.57
0.11
-1.7
0
-1.03
0.2
0.06

>  <PUBCHEM_SHAPE_SELFOVERLAP>  (1) 
730.831

>  <PUBCHEM_SHAPE_VOLUME>  (1) 
183.4

>  <PUBCHEM_COORDINATE_TYPE>  (1) 
2
5
10

$$$$
