9791
     RDKit          3D

 22 25  0  0  1  0  0  0  0  0999 V2000
   -0.4516   -2.4446    0.6415 O   0  0  0  0  0  0  0  0  0  0  0  0
   -4.1454   -1.2539    1.0153 O   0  0  0  0  0  0  0  0  0  0  0  0
    5.5791    0.0764   -0.7741 O   0  0  0  0  0  0  0  0  0  0  0  0
   -0.6771    0.9622    0.0878 C   0  0  0  0  0  0  0  0  0  0  0  0
   -2.0306    1.0392   -0.6861 C   0  0  0  0  0  0  0  0  0  0  0  0
    0.1621   -0.2758   -0.2960 C   0  0  0  0  0  0  0  0  0  0  0  0
   -2.8178   -0.2937   -0.7918 C   0  0  0  0  0  0  0  0  0  0  0  0
    1.5691   -0.3448    0.4055 C   0  0  0  0  0  0  0  0  0  0  0  0
    0.1424    2.2412   -0.1798 C   0  0  0  0  0  0  0  0  0  0  0  0
   -1.9643   -1.5463   -0.9529 C   0  0  0  0  0  0  0  0  0  0  0  0
   -3.0223    1.9714    0.0415 C   0  0  0  0  0  0  0  0  0  0  0  0
   -0.7223   -1.5047   -0.1014 C   0  0  0  0  0  0  0  0  0  0  0  0
    2.2850    0.9984    0.2188 C   0  0  0  0  0  0  0  0  0  0  0  0
    1.4797    2.2313    0.5458 C   0  0  0  0  0  0  0  0  0  0  0  0
   -3.6084   -0.2749    0.5112 C   0  0  0  0  0  0  0  0  0  0  0  0
   -3.6754    1.1054    1.1154 C   0  0  0  0  0  0  0  0  0  0  0  0
    2.3908   -1.4806   -0.2712 C   0  0  0  0  0  0  0  0  0  0  0  0
   -3.8461   -0.2537   -1.9388 C   0  0  0  0  0  0  0  0  0  0  0  0
    1.4826   -0.6032    1.9286 C   0  0  0  0  0  0  0  0  0  0  0  0
    3.8805   -1.4101    0.0254 C   0  0  0  0  0  0  0  0  0  0  0  0
    3.5633    1.1241   -0.1750 C   0  0  0  0  0  0  0  0  0  0  0  0
    4.4267   -0.0634   -0.3697 C   0  0  0  0  0  0  0  0  0  0  0  0
  1 12  2  0
  2 15  2  0
  3 22  2  0
  4  5  1  0
  4  6  1  0
  4  9  1  0
  5  7  1  0
  5 11  1  0
  6  8  1  0
  6 12  1  0
  7 10  1  0
  7 15  1  0
  7 18  1  0
  8 13  1  0
  8 17  1  0
  8 19  1  0
  9 14  1  0
 10 12  1  0
 11 16  1  0
 13 14  1  0
 13 21  2  0
 15 16  1  0
 17 20  1  0
 20 22  1  0
 21 22  1  0
M  END
>  <PUBCHEM_COMPOUND_CID>  (1) 
9791

>  <PUBCHEM_CONFORMER_RMSD>  (1) 
0.6

>  <PUBCHEM_CONFORMER_DIVERSEORDER>  (1) 
2
43
1
42
47
49
53
54
46
44
27
15
23
20
29
19
9
51
52
31
50
6
11
24
37
16
35
10
32
4
12
36
5
40
25
17
8
22
7
18
38
45
21
26
39
28
48
30
34
14
13
41
33
3

>  <PUBCHEM_MMFF94_PARTIAL_CHARGES>  (1) 
16
1 -0.57
10 0.06
12 0.45
13 -0.28
14 0.14
15 0.45
16 0.06
2 -0.57
20 0.06
21 -0.14
22 0.49
3 -0.57
46 0.15
6 0.06
7 0.06
8 0.14

>  <PUBCHEM_EFFECTIVE_ROTOR_COUNT>  (1) 
1.4

>  <PUBCHEM_PHARMACOPHORE_FEATURES>  (1) 
7
1 1 acceptor
1 2 acceptor
1 3 acceptor
5 5 7 11 15 16 rings
6 4 5 6 7 10 12 rings
6 4 6 8 9 13 14 rings
6 8 13 17 20 21 22 rings

>  <PUBCHEM_HEAVY_ATOM_COUNT>  (1) 
22

>  <PUBCHEM_ATOM_DEF_STEREO_COUNT>  (1) 
0

>  <PUBCHEM_ATOM_UDEF_STEREO_COUNT>  (1) 
5

>  <PUBCHEM_BOND_DEF_STEREO_COUNT>  (1) 
0

>  <PUBCHEM_BOND_UDEF_STEREO_COUNT>  (1) 
0

>  <PUBCHEM_ISOTOPIC_ATOM_COUNT>  (1) 
0

>  <PUBCHEM_COMPONENT_COUNT>  (1) 
1

>  <PUBCHEM_CACTVS_TAUTO_COUNT>  (1) 
30

>  <PUBCHEM_CONFORMER_ID>  (1) 
0000263F00000002

>  <PUBCHEM_MMFF94_ENERGY>  (1) 
59.0033

>  <PUBCHEM_FEATURE_SELFOVERLAP>  (1) 
35.733

>  <PUBCHEM_SHAPE_FINGERPRINT>  (1) 
10062212 137 18130500860043943783
10366900 7 17531246205558171571
10498660 4 17894899729042473533
10967382 1 18411134753530524452
11132069 177 18342444929238374992
11578080 2 17058645407424378402
12011746 2 18334012809272728863
121448 382 16660647383540964418
12236239 1 17775003527169001141
12403814 3 17895193272761429717
12553582 1 18412256242522038160
12788726 201 17916317039332248440
128620 24 14923948941899863376
13140716 1 17833544978652558001
13221675 6 18408881858310346152
13224815 77 17894627037168329193
13583140 156 16515397478096044536
14713325 29 16016377765585215916
14787075 74 17822586013151139752
14790565 3 18267877077145695304
15196674 1 18410857625160963644
15209289 33 18411141346178710409
15309172 13 18412824694460337039
15536298 74 18201713003061056032
16752209 62 18267284491880462645
16945 1 18269823363055280765
18186145 218 18040433265690737806
19591789 44 18408888425400075674
19862831 5 18335406985146801388
200 152 17632859737408219262
20028762 73 18129944615184390175
21029758 27 18334300880791997501
21267235 1 18412272743849615094
2334 1 18410565176342617941
23402539 116 18342173332971190908
23493267 7 17313093125630301113
23559900 14 18199456826760274120
2748010 2 18336809927787973117
296302 2 14620790514005995072
335352 9 18196371412074276580
350125 39 18411425020659036257
474 4 17531535394649852972
5104073 3 18411135797444968072
633830 44 18338237046477846247
7364860 26 18128807728434056240
90525 40 18131627864079096103
9709674 26 18197489847422683126
9981440 41 17192048165100939704

>  <PUBCHEM_SHAPE_MULTIPOLES>  (1) 
435.14
8.52
2.23
1.23
4.01
0.32
0.1
-0.44
-1.26
-0.2
0.17
-0.79
-0.22
-0.23

>  <PUBCHEM_SHAPE_SELFOVERLAP>  (1) 
946.452

>  <PUBCHEM_SHAPE_VOLUME>  (1) 
234.6

>  <PUBCHEM_COORDINATE_TYPE>  (1) 
2
5
10

$$$$
