9792
     RDKit          3D

 28 31  0  0  1  0  0  0  0  0999 V2000
   -0.9858   -0.2232   -1.4221 F   0  0  0  0  0  0  0  0  0  0  0  0
    3.3805   -0.3669   -1.8754 O   0  0  0  0  0  0  0  0  0  0  0  0
   -0.0631    2.1934    1.0823 O   0  0  0  0  0  0  0  0  0  0  0  0
    4.4994    1.7640    0.0015 O   0  0  0  0  0  0  0  0  0  0  0  0
   -6.1227   -0.4355   -1.4168 O   0  0  0  0  0  0  0  0  0  0  0  0
    7.0151    0.7358   -0.4306 O   0  0  0  0  0  0  0  0  0  0  0  0
    2.1204    0.1724    0.1654 C   0  0  0  0  0  0  0  0  0  0  0  0
    1.2749   -1.1118    0.0227 C   0  0  0  0  0  0  0  0  0  0  0  0
   -0.1323   -0.9822    0.6235 C   0  0  0  0  0  0  0  0  0  0  0  0
   -0.8937    0.1778   -0.0960 C   0  0  0  0  0  0  0  0  0  0  0  0
   -2.3918    0.3289    0.4072 C   0  0  0  0  0  0  0  0  0  0  0  0
    3.4543   -0.3290   -0.4535 C   0  0  0  0  0  0  0  0  0  0  0  0
    1.3942    1.2905   -0.6084 C   0  0  0  0  0  0  0  0  0  0  0  0
   -0.0681    1.4980   -0.1546 C   0  0  0  0  0  0  0  0  0  0  0  0
    2.2008   -2.2055    0.5496 C   0  0  0  0  0  0  0  0  0  0  0  0
    3.6067   -1.7688    0.0878 C   0  0  0  0  0  0  0  0  0  0  0  0
   -0.9025   -2.3045    0.4709 C   0  0  0  0  0  0  0  0  0  0  0  0
   -3.0695   -1.0431    0.3196 C   0  0  0  0  0  0  0  0  0  0  0  0
    2.3561    0.5932    1.6424 C   0  0  0  0  0  0  0  0  0  0  0  0
   -2.3343   -2.1886    0.9747 C   0  0  0  0  0  0  0  0  0  0  0  0
   -3.1170    1.3515   -0.5198 C   0  0  0  0  0  0  0  0  0  0  0  0
   -2.4855    0.7981    1.8786 C   0  0  0  0  0  0  0  0  0  0  0  0
    4.6312    0.5506   -0.1515 C   0  0  0  0  0  0  0  0  0  0  0  0
   -4.6430    1.2580   -0.5823 C   0  0  0  0  0  0  0  0  0  0  0  0
   -4.2544   -1.2688   -0.2701 C   0  0  0  0  0  0  0  0  0  0  0  0
   -5.0758   -0.1704   -0.8274 C   0  0  0  0  0  0  0  0  0  0  0  0
    5.9749   -0.1391   -0.0484 C   0  0  0  0  0  0  0  0  0  0  0  0
   -5.3690    1.8250    0.6307 C   0  0  0  0  0  0  0  0  0  0  0  0
  1 10  1  0
  2 12  1  0
  3 14  1  0
  4 23  2  0
  5 26  2  0
  6 27  1  0
  7  8  1  0
  7 12  1  0
  7 13  1  0
  7 19  1  0
  8  9  1  0
  8 15  1  0
  9 10  1  0
  9 17  1  0
 10 11  1  0
 10 14  1  0
 11 18  1  0
 11 21  1  0
 11 22  1  0
 12 16  1  0
 12 23  1  0
 13 14  1  0
 15 16  1  0
 17 20  1  0
 18 20  1  0
 18 25  2  0
 21 24  1  0
 23 27  1  0
 24 26  1  0
 24 28  1  0
 25 26  1  0
M  END
>  <PUBCHEM_COMPOUND_CID>  (1) 
9792

>  <PUBCHEM_CONFORMER_RMSD>  (1) 
0.8

>  <PUBCHEM_CONFORMER_DIVERSEORDER>  (1) 
1
2

>  <PUBCHEM_MMFF94_PARTIAL_CHARGES>  (1) 
21
1 -0.34
10 0.34
11 0.14
12 0.34
14 0.28
18 -0.28
2 -0.68
20 0.14
23 0.45
24 0.06
25 -0.14
26 0.49
27 0.34
3 -0.68
4 -0.57
5 -0.57
51 0.4
52 0.15
53 0.4
59 0.4
6 -0.68

>  <PUBCHEM_EFFECTIVE_ROTOR_COUNT>  (1) 
3.8

>  <PUBCHEM_PHARMACOPHORE_FEATURES>  (1) 
12
1 2 acceptor
1 2 donor
1 3 acceptor
1 3 donor
1 4 acceptor
1 5 acceptor
1 6 acceptor
1 6 donor
5 7 8 12 15 16 rings
6 11 18 21 24 25 26 rings
6 7 8 9 10 13 14 rings
6 9 10 11 17 18 20 rings

>  <PUBCHEM_HEAVY_ATOM_COUNT>  (1) 
28

>  <PUBCHEM_ATOM_DEF_STEREO_COUNT>  (1) 
7

>  <PUBCHEM_ATOM_UDEF_STEREO_COUNT>  (1) 
1

>  <PUBCHEM_BOND_DEF_STEREO_COUNT>  (1) 
0

>  <PUBCHEM_BOND_UDEF_STEREO_COUNT>  (1) 
0

>  <PUBCHEM_ISOTOPIC_ATOM_COUNT>  (1) 
0

>  <PUBCHEM_COMPONENT_COUNT>  (1) 
1

>  <PUBCHEM_CACTVS_TAUTO_COUNT>  (1) 
15

>  <PUBCHEM_CONFORMER_ID>  (1) 
0000264000000001

>  <PUBCHEM_MMFF94_ENERGY>  (1) 
98.2417

>  <PUBCHEM_FEATURE_SELFOVERLAP>  (1) 
60.995

>  <PUBCHEM_SHAPE_FINGERPRINT>  (1) 
10366900 7 18060136548441412506
10411042 1 17686065293976857403
10498660 4 18409171004188318312
10863032 1 18410013212804698779
10906281 52 18340503182876261666
11089746 13 18342736321458056880
11315181 36 17988929989610168160
12011746 2 18411696608003677623
12107183 9 17620195325871231177
12236239 1 18130786728940983708
12403814 3 17095239224322995471
12516196 113 17918270956655485312
12788726 201 17916588618023807945
13140716 1 18191319358224477408
13224815 77 18342741801540921010
14787075 74 18411695474459326641
14790565 3 18407762525498449245
15183329 4 18333726909888820635
15196674 1 18408323263448780595
15788980 27 15285358427050916742
1601671 61 18259984868395553764
16945 1 18114755913700767171
17349148 13 18201720631101918947
1813 80 13830128416912093243
18608769 82 18261960764649539651
18681886 176 18337104683098851648
18927931 339 10879993575490696417
19862831 5 18343582915483647979
200 152 17989484126385487423
20511986 3 18335967701727849426
21033648 29 17917700331679577809
21267235 1 18336836380364929091
21279426 13 18337955558853467703
21421861 104 17532078415897109386
22393880 68 18343297080777814207
23402539 116 18410009949188456662
23559900 14 18411132580134933936
23569914 152 17050211770876360788
296302 2 17385443215515086651
3004659 81 18187926123797358090
335352 9 18334858321109207382
34797466 226 17775009015414597141
34934 24 18334575733171737266
3545911 37 18334858324528468015
3633792 109 18263637381909655215
4073 2 18040441022861071986
465052 167 11239994594134890108
484989 97 18192709175883669671
5104073 3 18259987054523488603
5283173 99 18409444752450863261
59755656 215 18334297531556432582
59755656 520 18114176445551558398
7226269 152 18411420591967674489

>  <PUBCHEM_SHAPE_MULTIPOLES>  (1) 
539.61
12.73
2.18
1.24
4.61
0.54
-0.11
-2.93
3.12
-0.52
-0.45
-0.48
-0.14
-0.22

>  <PUBCHEM_SHAPE_SELFOVERLAP>  (1) 
1166.861

>  <PUBCHEM_SHAPE_VOLUME>  (1) 
296.4

>  <PUBCHEM_COORDINATE_TYPE>  (1) 
2
5
10

$$$$
