9794
     RDKit          3D

  9  8  0  0  0  0  0  0  0  0999 V2000
    1.0830    1.5684    0.0025 F   0  0  0  0  0  0  0  0  0  0  0  0
    2.0887   -0.0304    1.0901 F   0  0  0  0  0  0  0  0  0  0  0  0
    2.0888   -0.0270   -1.0900 F   0  0  0  0  0  0  0  0  0  0  0  0
   -1.0106    0.2744   -0.0031 O   0  0  0  0  0  0  0  0  0  0  0  0
    0.0266   -1.7894    0.0007 O   0  0  0  0  0  0  0  0  0  0  0  0
   -2.2923   -0.3626    0.0015 C   0  0  0  0  0  0  0  0  0  0  0  0
   -3.3708    0.6997    0.0009 C   0  0  0  0  0  0  0  0  0  0  0  0
    0.0622   -0.5663   -0.0030 C   0  0  0  0  0  0  0  0  0  0  0  0
    1.3243    0.2333    0.0004 C   0  0  0  0  0  0  0  0  0  0  0  0
  1  9  1  0
  2  9  1  0
  3  9  1  0
  4  6  1  0
  4  8  1  0
  5  8  2  0
  6  7  1  0
  8  9  1  0
M  END
>  <PUBCHEM_COMPOUND_CID>  (1) 
9794

>  <PUBCHEM_CONFORMER_RMSD>  (1) 
0.6

>  <PUBCHEM_CONFORMER_DIVERSEORDER>  (1) 
1
2
3

>  <PUBCHEM_MMFF94_PARTIAL_CHARGES>  (1) 
8
1 -0.34
2 -0.34
3 -0.34
4 -0.43
5 -0.57
6 0.28
8 0.66
9 1.08

>  <PUBCHEM_EFFECTIVE_ROTOR_COUNT>  (1) 
3

>  <PUBCHEM_PHARMACOPHORE_FEATURES>  (1) 
1
1 5 acceptor

>  <PUBCHEM_HEAVY_ATOM_COUNT>  (1) 
9

>  <PUBCHEM_ATOM_DEF_STEREO_COUNT>  (1) 
0

>  <PUBCHEM_ATOM_UDEF_STEREO_COUNT>  (1) 
0

>  <PUBCHEM_BOND_DEF_STEREO_COUNT>  (1) 
0

>  <PUBCHEM_BOND_UDEF_STEREO_COUNT>  (1) 
0

>  <PUBCHEM_ISOTOPIC_ATOM_COUNT>  (1) 
0

>  <PUBCHEM_COMPONENT_COUNT>  (1) 
1

>  <PUBCHEM_CACTVS_TAUTO_COUNT>  (1) 
1

>  <PUBCHEM_CONFORMER_ID>  (1) 
0000264200000001

>  <PUBCHEM_MMFF94_ENERGY>  (1) 
5.8467

>  <PUBCHEM_FEATURE_SELFOVERLAP>  (1) 
5.074

>  <PUBCHEM_SHAPE_FINGERPRINT>  (1) 
14325111 11 18410856594331843815
14390081 3 18201997707995390257
20096714 4 18337390555652289035
21040471 1 18410575136229268103
29004967 10 18335421227522033907
5084963 1 18059866072886366009

>  <PUBCHEM_SHAPE_MULTIPOLES>  (1) 
151.66
3.97
1.22
0.76
3
0.17
0
-0.98
0
-0.1
0
-0.41
0
0

>  <PUBCHEM_SHAPE_SELFOVERLAP>  (1) 
289.85

>  <PUBCHEM_SHAPE_VOLUME>  (1) 
93.8

>  <PUBCHEM_COORDINATE_TYPE>  (1) 
2
5
10

$$$$
