9798
     RDKit          3D

 28 34  0  0  0  0  0  0  0  0999 V2000
   -0.3672    0.7059    0.0085 C   0  0  0  0  0  0  0  0  0  0  0  0
   -0.3674   -0.7058   -0.0078 C   0  0  0  0  0  0  0  0  0  0  0  0
    2.1146    0.6787    0.1827 C   0  0  0  0  0  0  0  0  0  0  0  0
    2.1144   -0.6791   -0.1825 C   0  0  0  0  0  0  0  0  0  0  0  0
    0.8882    1.3723    0.3014 C   0  0  0  0  0  0  0  0  0  0  0  0
    0.8878   -1.3725   -0.3009 C   0  0  0  0  0  0  0  0  0  0  0  0
   -1.6172    1.3763   -0.2789 C   0  0  0  0  0  0  0  0  0  0  0  0
   -1.6176   -1.3760    0.2793 C   0  0  0  0  0  0  0  0  0  0  0  0
   -2.8530    0.6872   -0.1843 C   0  0  0  0  0  0  0  0  0  0  0  0
   -2.8531   -0.6866    0.1845 C   0  0  0  0  0  0  0  0  0  0  0  0
    3.3585    1.3409    0.4030 C   0  0  0  0  0  0  0  0  0  0  0  0
    3.3581   -1.3414   -0.4033 C   0  0  0  0  0  0  0  0  0  0  0  0
    0.9807    2.7025    0.7877 C   0  0  0  0  0  0  0  0  0  0  0  0
    0.9799   -2.7026   -0.7871 C   0  0  0  0  0  0  0  0  0  0  0  0
    4.5629    0.6623    0.2060 C   0  0  0  0  0  0  0  0  0  0  0  0
    4.5627   -0.6630   -0.2071 C   0  0  0  0  0  0  0  0  0  0  0  0
    3.3820    2.6718    0.8188 C   0  0  0  0  0  0  0  0  0  0  0  0
    3.3813   -2.6723   -0.8189 C   0  0  0  0  0  0  0  0  0  0  0  0
   -1.6716    2.7175   -0.7511 C   0  0  0  0  0  0  0  0  0  0  0  0
   -1.6724   -2.7172    0.7512 C   0  0  0  0  0  0  0  0  0  0  0  0
    2.1940    3.3454    1.0327 C   0  0  0  0  0  0  0  0  0  0  0  0
    2.1931   -3.3458   -1.0323 C   0  0  0  0  0  0  0  0  0  0  0  0
   -4.0510    1.4101   -0.4527 C   0  0  0  0  0  0  0  0  0  0  0  0
   -4.0515   -1.4093    0.4524 C   0  0  0  0  0  0  0  0  0  0  0  0
   -2.8591    3.3963   -1.0201 C   0  0  0  0  0  0  0  0  0  0  0  0
   -2.8600   -3.3961    1.0197 C   0  0  0  0  0  0  0  0  0  0  0  0
   -4.0581    2.7431   -0.8526 C   0  0  0  0  0  0  0  0  0  0  0  0
   -4.0589   -2.7426    0.8518 C   0  0  0  0  0  0  0  0  0  0  0  0
  1  2  2  0
  1  5  1  0
  1  7  1  0
  2  6  1  0
  2  8  1  0
  3  4  2  0
  3  5  1  0
  3 11  1  0
  4  6  1  0
  4 12  1  0
  5 13  2  0
  6 14  2  0
  7  9  2  0
  7 19  1  0
  8 10  2  0
  8 20  1  0
  9 10  1  0
  9 23  1  0
 10 24  1  0
 11 15  2  0
 11 17  1  0
 12 16  2  0
 12 18  1  0
 13 21  1  0
 14 22  1  0
 15 16  1  0
 17 21  2  0
 18 22  2  0
 19 25  2  0
 20 26  2  0
 23 27  2  0
 24 28  2  0
 25 27  1  0
 26 28  1  0
M  END
>  <PUBCHEM_COMPOUND_CID>  (1) 
9798

>  <PUBCHEM_CONFORMER_RMSD>  (1) 
0.6

>  <PUBCHEM_CONFORMER_DIVERSEORDER>  (1) 
2
1

>  <PUBCHEM_MMFF94_PARTIAL_CHARGES>  (1) 
32
13 -0.15
14 -0.15
15 -0.15
16 -0.15
17 -0.15
18 -0.15
19 -0.15
20 -0.15
21 -0.15
22 -0.15
23 -0.15
24 -0.15
25 -0.15
26 -0.15
27 -0.15
28 -0.15
29 0.15
30 0.15
31 0.15
32 0.15
33 0.15
34 0.15
35 0.15
36 0.15
37 0.15
38 0.15
39 0.15
40 0.15
41 0.15
42 0.15
43 0.15
44 0.15

>  <PUBCHEM_EFFECTIVE_ROTOR_COUNT>  (1) 
0

>  <PUBCHEM_PHARMACOPHORE_FEATURES>  (1) 
7
6 1 2 3 4 5 6 rings
6 1 2 7 8 9 10 rings
6 3 4 11 12 15 16 rings
6 3 5 11 13 17 21 rings
6 4 6 12 14 18 22 rings
6 7 9 19 23 25 27 rings
6 8 10 20 24 26 28 rings

>  <PUBCHEM_HEAVY_ATOM_COUNT>  (1) 
28

>  <PUBCHEM_ATOM_DEF_STEREO_COUNT>  (1) 
0

>  <PUBCHEM_ATOM_UDEF_STEREO_COUNT>  (1) 
0

>  <PUBCHEM_BOND_DEF_STEREO_COUNT>  (1) 
0

>  <PUBCHEM_BOND_UDEF_STEREO_COUNT>  (1) 
0

>  <PUBCHEM_ISOTOPIC_ATOM_COUNT>  (1) 
0

>  <PUBCHEM_COMPONENT_COUNT>  (1) 
1

>  <PUBCHEM_CACTVS_TAUTO_COUNT>  (1) 
1

>  <PUBCHEM_CONFORMER_ID>  (1) 
0000264600000002

>  <PUBCHEM_MMFF94_ENERGY>  (1) 
144.5678

>  <PUBCHEM_FEATURE_SELFOVERLAP>  (1) 
35.722

>  <PUBCHEM_SHAPE_FINGERPRINT>  (1) 
10165383 225 17625266694585235928
10319926 262 18336245900509450026
10675989 125 17255673097738511108
10693767 8 17479991127089777959
10906281 52 17984150262356167980
10967382 1 18270117899343958732
1100329 8 17546729248742581680
11828532 37 15511666808251940915
12403259 226 18339643450719597162
12422481 6 18266480843970953579
12553582 1 17911535194316460138
13140716 1 18339928228531478865
13402501 40 18411419513888178177
13583140 156 18343019995072810727
138480 1 16462195074498548099
140371 6 18054794984000064864
14223421 5 18339081595924794499
14363568 33 17325514566134602993
14725015 67 18335697303535807434
14790565 3 17111578242317467653
15351339 4 17327173248065224771
15950262 2 14929621155073727615
19591789 44 18125161782309461524
1979834 28 17834976526129225963
20739085 24 17904504130815339851
20775438 99 17981283947333253295
21033648 29 18116984490885681453
21133410 32 16739515336245705730
221490 88 18412266133936982036
22182313 1 18272091612999852766
22440779 20 17103464645230839371
23559900 14 18268426829043956390
238 59 18125689418619893093
27425 322 17022913319373082733
2748010 2 18194962069932008645
3298306 158 18341891879363847860
335352 9 18267020544733644708
3380486 145 18338536182771411601
350125 39 18267872868319948544
4015057 19 18270104713615051189
5047190 48 17906172111113410288
508706 21 18408035204371257037
5104073 3 18411697716395501688
5309563 4 17975981178519541995
59755656 215 18334850641370091295
7399639 24 18124307469995693672
9709674 26 18411698755666712863

>  <PUBCHEM_SHAPE_MULTIPOLES>  (1) 
576.23
8.42
5.01
1
0.31
0
0
0
0
-1.57
0
-0.13
0
3.32

>  <PUBCHEM_SHAPE_SELFOVERLAP>  (1) 
1369.957

>  <PUBCHEM_SHAPE_VOLUME>  (1) 
256.7

>  <PUBCHEM_COORDINATE_TYPE>  (1) 
2
5
10

$$$$
