9807
     RDKit          3D

 11 11  0  0  0  0  0  0  0  0999 V2000
    0.0459   -2.1584    0.0013 F   0  0  0  0  0  0  0  0  0  0  0  0
    2.1059    1.4775   -0.0013 F   0  0  0  0  0  0  0  0  0  0  0  0
    2.1160   -0.4004    1.0837 F   0  0  0  0  0  0  0  0  0  0  0  0
    2.0931   -0.4043   -1.0908 F   0  0  0  0  0  0  0  0  0  0  0  0
    0.0738    0.2149    0.0012 C   0  0  0  0  0  0  0  0  0  0  0  0
   -0.6197   -0.9953    0.0020 C   0  0  0  0  0  0  0  0  0  0  0  0
   -0.6275    1.4206    0.0003 C   0  0  0  0  0  0  0  0  0  0  0  0
    1.5653    0.2231    0.0005 C   0  0  0  0  0  0  0  0  0  0  0  0
   -2.0146   -0.9999    0.0018 C   0  0  0  0  0  0  0  0  0  0  0  0
   -2.0224    1.4162    0.0002 C   0  0  0  0  0  0  0  0  0  0  0  0
   -2.7159    0.2059    0.0010 C   0  0  0  0  0  0  0  0  0  0  0  0
  1  6  1  0
  2  8  1  0
  3  8  1  0
  4  8  1  0
  5  6  2  0
  5  7  1  0
  5  8  1  0
  6  9  1  0
  7 10  2  0
  9 11  2  0
 10 11  1  0
M  END
>  <PUBCHEM_COMPOUND_CID>  (1) 
9807

>  <PUBCHEM_CONFORMER_RMSD>  (1) 
0.4

>  <PUBCHEM_CONFORMER_DIVERSEORDER>  (1) 
1

>  <PUBCHEM_MMFF94_PARTIAL_CHARGES>  (1) 
15
1 -0.19
10 -0.15
11 -0.15
12 0.15
13 0.15
14 0.15
15 0.15
2 -0.34
3 -0.34
4 -0.34
5 -0.14
6 0.19
7 -0.15
8 1.16
9 -0.15

>  <PUBCHEM_EFFECTIVE_ROTOR_COUNT>  (1) 
1

>  <PUBCHEM_PHARMACOPHORE_FEATURES>  (1) 
1
6 5 6 7 9 10 11 rings

>  <PUBCHEM_HEAVY_ATOM_COUNT>  (1) 
11

>  <PUBCHEM_ATOM_DEF_STEREO_COUNT>  (1) 
0

>  <PUBCHEM_ATOM_UDEF_STEREO_COUNT>  (1) 
0

>  <PUBCHEM_BOND_DEF_STEREO_COUNT>  (1) 
0

>  <PUBCHEM_BOND_UDEF_STEREO_COUNT>  (1) 
0

>  <PUBCHEM_ISOTOPIC_ATOM_COUNT>  (1) 
0

>  <PUBCHEM_COMPONENT_COUNT>  (1) 
1

>  <PUBCHEM_CACTVS_TAUTO_COUNT>  (1) 
1

>  <PUBCHEM_CONFORMER_ID>  (1) 
0000264F00000001

>  <PUBCHEM_MMFF94_ENERGY>  (1) 
16.2309

>  <PUBCHEM_FEATURE_SELFOVERLAP>  (1) 
5.074

>  <PUBCHEM_SHAPE_FINGERPRINT>  (1) 
12423570 1 16975918281320343854
12524768 44 18269559501575888317
12897270 3 18410294683771213733
16945 1 18338516327063599109
18185500 45 17974285726882437711
20645464 45 18059847389831421648
20871998 184 17984706876679362223
21040471 1 18266459815193905957
23552423 10 18334017202438768743
241688 4 17185315340107470859
2748010 2 18338517551092446269
29004967 10 16415478255025517745
369184 2 18040989661592747665
5084963 1 18131638850294260913

>  <PUBCHEM_SHAPE_MULTIPOLES>  (1) 
197.28
3.37
1.7
0.73
0.15
0.23
0
-0.48
-0.01
-0.25
0
0.3
0.05
0

>  <PUBCHEM_SHAPE_SELFOVERLAP>  (1) 
418.412

>  <PUBCHEM_SHAPE_VOLUME>  (1) 
110.9

>  <PUBCHEM_COORDINATE_TYPE>  (1) 
2
5
10

$$$$
