9816
     RDKit          3D

 14 14  0  0  0  0  0  0  0  0999 V2000
   -3.4843   -0.6840    0.0007 F   0  0  0  0  0  0  0  0  0  0  0  0
   -2.8324    1.0787    1.0834 F   0  0  0  0  0  0  0  0  0  0  0  0
   -2.8114    1.0722   -1.0911 F   0  0  0  0  0  0  0  0  0  0  0  0
    2.7474   -1.6834   -0.0015 O   0  0  0  0  0  0  0  0  0  0  0  0
    2.0739    2.3406    0.0008 O   0  0  0  0  0  0  0  0  0  0  0  0
    3.4988    0.6707    0.0013 O   0  0  0  0  0  0  0  0  0  0  0  0
    2.3254    1.1123    0.0008 N   0  0  0  0  0  0  0  0  0  0  0  0
   -1.1380   -0.2167    0.0007 C   0  0  0  0  0  0  0  0  0  0  0  0
   -0.0644    0.6738    0.0006 C   0  0  0  0  0  0  0  0  0  0  0  0
    1.2437    0.1893    0.0007 C   0  0  0  0  0  0  0  0  0  0  0  0
   -0.9038   -1.5917    0.0010 C   0  0  0  0  0  0  0  0  0  0  0  0
    1.4780   -1.1858    0.0009 C   0  0  0  0  0  0  0  0  0  0  0  0
    0.4041   -2.0762    0.0011 C   0  0  0  0  0  0  0  0  0  0  0  0
   -2.5370    0.3002    0.0006 C   0  0  0  0  0  0  0  0  0  0  0  0
  1 14  1  0
  2 14  1  0
  3 14  1  0
  4 12  1  0
  5  7  1  0
  6  7  2  0
  7 10  1  0
  8  9  2  0
  8 11  1  0
  8 14  1  0
  9 10  1  0
 10 12  2  0
 11 13  2  0
 12 13  1  0
M  CHG  2   5  -1   7   1
M  END
>  <PUBCHEM_COMPOUND_CID>  (1) 
9816

>  <PUBCHEM_CONFORMER_RMSD>  (1) 
0.6

>  <PUBCHEM_CONFORMER_DIVERSEORDER>  (1) 
1

>  <PUBCHEM_MMFF94_PARTIAL_CHARGES>  (1) 
18
1 -0.34
10 0.13
11 -0.15
12 0.08
13 -0.15
14 1.16
15 0.15
16 0.15
17 0.15
18 0.45
2 -0.34
3 -0.34
4 -0.53
5 -0.52
6 -0.52
7 0.91
8 -0.14
9 -0.15

>  <PUBCHEM_EFFECTIVE_ROTOR_COUNT>  (1) 
2

>  <PUBCHEM_PHARMACOPHORE_FEATURES>  (1) 
5
1 4 donor
1 5 acceptor
1 5 anion
1 6 acceptor
6 8 9 10 11 12 13 rings

>  <PUBCHEM_HEAVY_ATOM_COUNT>  (1) 
14

>  <PUBCHEM_ATOM_DEF_STEREO_COUNT>  (1) 
0

>  <PUBCHEM_ATOM_UDEF_STEREO_COUNT>  (1) 
0

>  <PUBCHEM_BOND_DEF_STEREO_COUNT>  (1) 
0

>  <PUBCHEM_BOND_UDEF_STEREO_COUNT>  (1) 
0

>  <PUBCHEM_ISOTOPIC_ATOM_COUNT>  (1) 
0

>  <PUBCHEM_COMPONENT_COUNT>  (1) 
1

>  <PUBCHEM_CACTVS_TAUTO_COUNT>  (1) 
4

>  <PUBCHEM_CONFORMER_ID>  (1) 
0000265800000001

>  <PUBCHEM_MMFF94_ENERGY>  (1) 
33.587

>  <PUBCHEM_FEATURE_SELFOVERLAP>  (1) 
25.453

>  <PUBCHEM_SHAPE_FINGERPRINT>  (1) 
10608611 8 18334571326492989629
10980938 120 18408604747358076786
11471102 20 18338513037065916005
12932764 1 17822575993272201243
13380535 21 18336278928169996190
13380535 76 18338514248199564882
13897977 150 18410572911414921447
14144814 61 18412262822258773120
14325111 11 18410856559845556875
14897335 6 18340480162110160862
15219456 202 18260828155459954653
15775835 57 18411986870704944053
16945 1 18194401095695497223
17844478 74 17968388870324745753
18186145 218 18342745078505918460
193761 8 18266740384017400390
20510252 161 17765720508903089456
20645477 70 18340199696830852623
20671657 1 18410580612829359908
20715346 28 17967536757302816741
21028194 46 18334576892548961573
21501502 16 18339077193699841294
21524375 3 18337670935634080178
21639500 275 18340190951754990533
2334 1 18338516446974842094
23402655 69 18341319008341973517
23552423 10 18339922619536532363
25 1 18410016502928833054
2748010 2 18410017666754531766
528886 8 18411414042411138066
53812653 166 18342173423081082160
63268167 104 18411699855025203857
7364860 26 18342740693729677886
81228 2 17545596116200808218

>  <PUBCHEM_SHAPE_MULTIPOLES>  (1) 
243.7
4.95
2.06
0.69
1.03
0.16
0
-1.4
0.01
-1.06
0
0.37
-0.12
0

>  <PUBCHEM_SHAPE_SELFOVERLAP>  (1) 
520.834

>  <PUBCHEM_SHAPE_VOLUME>  (1) 
136.1

>  <PUBCHEM_COORDINATE_TYPE>  (1) 
2
5
10

$$$$
