9821
     RDKit          3D

 13 13  0  0  0  0  0  0  0  0999 V2000
   -3.1644    1.2520    0.0012 F   0  0  0  0  0  0  0  0  0  0  0  0
   -3.1640   -0.6260   -1.0838 F   0  0  0  0  0  0  0  0  0  0  0  0
   -3.1412   -0.6299    1.0905 F   0  0  0  0  0  0  0  0  0  0  0  0
    3.6925    1.0979    0.0013 O   0  0  0  0  0  0  0  0  0  0  0  0
    3.6925   -1.0973   -0.0007 O   0  0  0  0  0  0  0  0  0  0  0  0
    3.0844    0.0003   -0.0003 N   0  0  0  0  0  0  0  0  0  0  0  0
   -1.1253    0.0006   -0.0013 C   0  0  0  0  0  0  0  0  0  0  0  0
   -0.4279    1.2085   -0.0003 C   0  0  0  0  0  0  0  0  0  0  0  0
   -0.4281   -1.2075   -0.0023 C   0  0  0  0  0  0  0  0  0  0  0  0
    1.6644    0.0003   -0.0013 C   0  0  0  0  0  0  0  0  0  0  0  0
    0.9669    1.2084   -0.0004 C   0  0  0  0  0  0  0  0  0  0  0  0
    0.9669   -1.2077   -0.0023 C   0  0  0  0  0  0  0  0  0  0  0  0
   -2.6166    0.0005   -0.0005 C   0  0  0  0  0  0  0  0  0  0  0  0
  1 13  1  0
  2 13  1  0
  3 13  1  0
  4  6  1  0
  5  6  2  0
  6 10  1  0
  7  8  2  0
  7  9  1  0
  7 13  1  0
  8 11  1  0
  9 12  2  0
 10 11  2  0
 10 12  1  0
M  CHG  2   4  -1   6   1
M  END
>  <PUBCHEM_COMPOUND_CID>  (1) 
9821

>  <PUBCHEM_CONFORMER_RMSD>  (1) 
0.6

>  <PUBCHEM_CONFORMER_DIVERSEORDER>  (1) 
1

>  <PUBCHEM_MMFF94_PARTIAL_CHARGES>  (1) 
17
1 -0.34
10 0.13
11 -0.15
12 -0.15
13 1.16
14 0.15
15 0.15
16 0.15
17 0.15
2 -0.34
3 -0.34
4 -0.52
5 -0.52
6 0.91
7 -0.14
8 -0.15
9 -0.15

>  <PUBCHEM_EFFECTIVE_ROTOR_COUNT>  (1) 
2

>  <PUBCHEM_PHARMACOPHORE_FEATURES>  (1) 
4
1 4 acceptor
1 4 anion
1 5 acceptor
6 7 8 9 10 11 12 rings

>  <PUBCHEM_HEAVY_ATOM_COUNT>  (1) 
13

>  <PUBCHEM_ATOM_DEF_STEREO_COUNT>  (1) 
0

>  <PUBCHEM_ATOM_UDEF_STEREO_COUNT>  (1) 
0

>  <PUBCHEM_BOND_DEF_STEREO_COUNT>  (1) 
0

>  <PUBCHEM_BOND_UDEF_STEREO_COUNT>  (1) 
0

>  <PUBCHEM_ISOTOPIC_ATOM_COUNT>  (1) 
0

>  <PUBCHEM_COMPONENT_COUNT>  (1) 
1

>  <PUBCHEM_CACTVS_TAUTO_COUNT>  (1) 
1

>  <PUBCHEM_CONFORMER_ID>  (1) 
0000265D00000001

>  <PUBCHEM_MMFF94_ENERGY>  (1) 
28.365

>  <PUBCHEM_FEATURE_SELFOVERLAP>  (1) 
20.379

>  <PUBCHEM_SHAPE_FINGERPRINT>  (1) 
10219947 1 18412546513496591686
11132069 177 18272360962935655666
11401426 45 18341883082943725700
12032990 46 18408612448049926146
12932764 1 17775562056830883113
14144814 61 18410012143473665680
14325111 11 18410855460302365028
14993402 34 18272928353611006670
16945 1 18410855494509025158
17844478 74 18040722467366445917
18186145 218 17603304834583009950
19026448 4 16443062807243851094
19026448 5 16487257677127588658
193761 8 17618222153476109478
200 152 18201150044928962007
20201158 50 18334294245157039899
20645477 70 18341608166298076726
23402539 116 18201429256125422948
23402655 69 18268413648111293261
23463225 33 18336826394945527050
2748010 2 18123187909549932358
528886 8 18411414007787616635

>  <PUBCHEM_SHAPE_MULTIPOLES>  (1) 
228.99
5.88
1.38
0.7
1.12
0.09
0
0
0
0.25
0
-0.43
-0.09
0

>  <PUBCHEM_SHAPE_SELFOVERLAP>  (1) 
485.497

>  <PUBCHEM_SHAPE_VOLUME>  (1) 
129.6

>  <PUBCHEM_COORDINATE_TYPE>  (1) 
2
5
10

$$$$
