9823
     RDKit          3D

 10 10  0  0  0  0  0  0  0  0999 V2000
   -2.6582    1.5169    0.0005 F   0  0  0  0  0  0  0  0  0  0  0  0
    2.8442   -0.6465    0.0004 O   0  0  0  0  0  0  0  0  0  0  0  0
    2.2975    1.4796   -0.0003 O   0  0  0  0  0  0  0  0  0  0  0  0
    1.9818    0.2651    0.0002 N   0  0  0  0  0  0  0  0  0  0  0  0
    0.6067   -0.0885   -0.0001 C   0  0  0  0  0  0  0  0  0  0  0  0
   -0.3696    0.9078   -0.0002 C   0  0  0  0  0  0  0  0  0  0  0  0
    0.2321   -1.4321    0.0000 C   0  0  0  0  0  0  0  0  0  0  0  0
   -1.7205    0.5604   -0.0003 C   0  0  0  0  0  0  0  0  0  0  0  0
   -1.1189   -1.7795    0.0000 C   0  0  0  0  0  0  0  0  0  0  0  0
   -2.0952   -0.7832   -0.0001 C   0  0  0  0  0  0  0  0  0  0  0  0
  1  8  1  0
  2  4  1  0
  3  4  2  0
  4  5  1  0
  5  6  2  0
  5  7  1  0
  6  8  1  0
  7  9  2  0
  8 10  2  0
  9 10  1  0
M  CHG  2   2  -1   4   1
M  END
>  <PUBCHEM_COMPOUND_CID>  (1) 
9823

>  <PUBCHEM_CONFORMER_RMSD>  (1) 
0.4

>  <PUBCHEM_CONFORMER_DIVERSEORDER>  (1) 
1

>  <PUBCHEM_MMFF94_PARTIAL_CHARGES>  (1) 
14
1 -0.19
10 -0.15
11 0.15
12 0.15
13 0.15
14 0.15
2 -0.52
3 -0.52
4 0.91
5 0.13
6 -0.15
7 -0.15
8 0.19
9 -0.15

>  <PUBCHEM_EFFECTIVE_ROTOR_COUNT>  (1) 
1

>  <PUBCHEM_PHARMACOPHORE_FEATURES>  (1) 
4
1 2 acceptor
1 2 anion
1 3 acceptor
6 5 6 7 8 9 10 rings

>  <PUBCHEM_HEAVY_ATOM_COUNT>  (1) 
10

>  <PUBCHEM_ATOM_DEF_STEREO_COUNT>  (1) 
0

>  <PUBCHEM_ATOM_UDEF_STEREO_COUNT>  (1) 
0

>  <PUBCHEM_BOND_DEF_STEREO_COUNT>  (1) 
0

>  <PUBCHEM_BOND_UDEF_STEREO_COUNT>  (1) 
0

>  <PUBCHEM_ISOTOPIC_ATOM_COUNT>  (1) 
0

>  <PUBCHEM_COMPONENT_COUNT>  (1) 
1

>  <PUBCHEM_CACTVS_TAUTO_COUNT>  (1) 
1

>  <PUBCHEM_CONFORMER_ID>  (1) 
0000265F00000001

>  <PUBCHEM_MMFF94_ENERGY>  (1) 
25.4379

>  <PUBCHEM_FEATURE_SELFOVERLAP>  (1) 
20.379

>  <PUBCHEM_SHAPE_FINGERPRINT>  (1) 
14325111 11 18410573980882968032
16945 1 18338797814608862951
193761 8 16032673751441479783
19973954 147 18338518654761930172
20653085 51 18338248101760329416
20871998 184 18128543862628087007
21040471 1 18410573959503031623
23235685 24 18339637824444431473
23552423 10 18260829358003513038
241688 4 16322875938641760243
2748010 2 18410857684931770781
369184 2 18342175617355761026
5084963 1 18273214213701925034

>  <PUBCHEM_SHAPE_MULTIPOLES>  (1) 
181.8
3.54
1.74
0.58
1.39
0.12
0
-0.79
0
-0.5
0
-0.04
0.03
0

>  <PUBCHEM_SHAPE_SELFOVERLAP>  (1) 
382.27

>  <PUBCHEM_SHAPE_VOLUME>  (1) 
103.2

>  <PUBCHEM_COORDINATE_TYPE>  (1) 
2
5
10

$$$$
