9849
     RDKit          3D

  9  8  0  0  0  0  0  0  0  0999 V2000
    2.9385    1.2609   -0.3426 F   0  0  0  0  0  0  0  0  0  0  0  0
    3.8898   -0.6712   -0.0362 F   0  0  0  0  0  0  0  0  0  0  0  0
   -0.9725   -0.4944   -0.1735 C   0  0  0  0  0  0  0  0  0  0  0  0
    0.3095    0.2072    0.2808 C   0  0  0  0  0  0  0  0  0  0  0  0
   -2.2474    0.2726    0.1889 C   0  0  0  0  0  0  0  0  0  0  0  0
    1.5465   -0.6168   -0.0764 C   0  0  0  0  0  0  0  0  0  0  0  0
   -3.5294   -0.4404   -0.2432 C   0  0  0  0  0  0  0  0  0  0  0  0
    2.8262    0.0880    0.3284 C   0  0  0  0  0  0  0  0  0  0  0  0
   -4.7612    0.3940    0.0738 C   0  0  0  0  0  0  0  0  0  0  0  0
  1  8  1  0
  2  8  1  0
  3  4  1  0
  3  5  1  0
  4  6  1  0
  5  7  1  0
  6  8  1  0
  7  9  1  0
M  END
>  <PUBCHEM_COMPOUND_CID>  (1) 
9849

>  <PUBCHEM_CONFORMER_RMSD>  (1) 
0.6

>  <PUBCHEM_CONFORMER_DIVERSEORDER>  (1) 
1
68
67
44
54
2
15
53
50
73
32
31
30
71
46
21
16
77
29
8
41
43
10
17
14
55
62
76
24
59
19
22
35
63
70
7
74
36
64
11
69
6
42
33
58
12
66
60
27
57
51
61
9
45
37
28
72
3
49
5
75
47
56
40
39
65
18
25
38
52
13
26
48
23
4
20
34

>  <PUBCHEM_MMFF94_PARTIAL_CHARGES>  (1) 
3
1 -0.34
2 -0.34
8 0.68

>  <PUBCHEM_EFFECTIVE_ROTOR_COUNT>  (1) 
5

>  <PUBCHEM_PHARMACOPHORE_FEATURES>  (1) 
2
1 9 hydrophobe
5 3 4 5 6 7 hydrophobe

>  <PUBCHEM_HEAVY_ATOM_COUNT>  (1) 
9

>  <PUBCHEM_ATOM_DEF_STEREO_COUNT>  (1) 
0

>  <PUBCHEM_ATOM_UDEF_STEREO_COUNT>  (1) 
0

>  <PUBCHEM_BOND_DEF_STEREO_COUNT>  (1) 
0

>  <PUBCHEM_BOND_UDEF_STEREO_COUNT>  (1) 
0

>  <PUBCHEM_ISOTOPIC_ATOM_COUNT>  (1) 
0

>  <PUBCHEM_COMPONENT_COUNT>  (1) 
1

>  <PUBCHEM_CACTVS_TAUTO_COUNT>  (1) 
1

>  <PUBCHEM_CONFORMER_ID>  (1) 
0000267900000001

>  <PUBCHEM_MMFF94_ENERGY>  (1) 
-0.9159

>  <PUBCHEM_FEATURE_SELFOVERLAP>  (1) 
10.149

>  <PUBCHEM_SHAPE_FINGERPRINT>  (1) 
11062470 55 18335138691836107003
12932764 1 16950549008850969339
14325111 11 18411136952564459411
17834076 25 16298387946401221303
190213 19 17917712404954030387
20645477 70 18269835328956071695
20719005 15 18411699889865041939
21119208 17 18343584031732117759
22485316 2 10159696885184233517
23402539 116 17560792213258255469

>  <PUBCHEM_SHAPE_MULTIPOLES>  (1) 
170.67
8.58
0.88
0.64
3.34
0.08
-0.01
0.61
0.16
-0.33
0.06
0.02
0.02
-0.18

>  <PUBCHEM_SHAPE_SELFOVERLAP>  (1) 
303.31

>  <PUBCHEM_SHAPE_VOLUME>  (1) 
111.6

>  <PUBCHEM_COORDINATE_TYPE>  (1) 
2
5
10

$$$$
