9856
     RDKit          3D

 10  9  0  0  0  0  0  0  0  0999 V2000
   -5.5250   -0.2972   -0.0767 F   0  0  0  0  0  0  0  0  0  0  0  0
    5.5706    0.3208   -0.0691 O   0  0  0  0  0  0  0  0  0  0  0  0
    0.6394    0.4061    0.0662 C   0  0  0  0  0  0  0  0  0  0  0  0
   -0.6371   -0.4380    0.0492 C   0  0  0  0  0  0  0  0  0  0  0  0
    1.8896   -0.4747    0.0376 C   0  0  0  0  0  0  0  0  0  0  0  0
   -1.8857    0.4468    0.0389 C   0  0  0  0  0  0  0  0  0  0  0  0
    3.1628    0.3684    0.0210 C   0  0  0  0  0  0  0  0  0  0  0  0
   -3.1907   -0.3486    0.0357 C   0  0  0  0  0  0  0  0  0  0  0  0
    4.4111   -0.5010   -0.0515 C   0  0  0  0  0  0  0  0  0  0  0  0
   -4.4350    0.5175   -0.0514 C   0  0  0  0  0  0  0  0  0  0  0  0
  1 10  1  0
  2  9  1  0
  3  4  1  0
  3  5  1  0
  4  6  1  0
  5  7  1  0
  6  8  1  0
  7  9  1  0
  8 10  1  0
M  END
>  <PUBCHEM_COMPOUND_CID>  (1) 
9856

>  <PUBCHEM_CONFORMER_RMSD>  (1) 
0.6

>  <PUBCHEM_CONFORMER_DIVERSEORDER>  (1) 
1
173
224
344
127
324
5
308
4
351
151
203
339
130
259
7
273
9
216
326
176
197
85
317
320
6
58
69
243
84
145
209
331
3
312
313
10
250
154
72
285
332
286
346
79
30
170
33
34
290
92
2
353
315
20
199
271
345
48
109
117
11
329
347
73
234
352
343
56
139
120
291
21
106
41
321
131
157
24
99
314
262
280
303
22
192
18
171
248
295
149
46
272
49
268
38
305
150
91
96
83
246
336
31
337
17
229
104
302
100
75
323
307
164
143
281
184
51
300
128
238
340
236
207
102
8
333
146
65
190
172
316
15
231
255
319
45
178
141
88
206
298
247
256
289
61
240
270
13
52
62
277
40
132
283
349
29
187
254
194
98
311
342
267
36
16
306
230
158
260
57
341
12
211
274
222
23
304
276
26
156
309
115
208
112
188
235
328
107
116
155
64
278
299
237
350
144
126
77
161
296
50
95
113
334
118
242
327
258
287
218
244
123
186
165
252
292
335
153
63
228
53
245
301
177
19
232
214
196
205
129
60
266
297
76
167
162
87
215
28
14
225
257
121
210
310
32
288
263
275
239
110
94
97
253
338
325
135
108
37
264
265
119
330
269
147
163
181
105
114
74
93
59
179
221
82
47
294
183
348
44
200
140
251
193
138
27
90
318
134
111
219
86
174
217
137
322
136
195
166
66
227
42
122
142
160
279
233
168
54
55
152
220
284
133
182
25
148
103
80
78
223
43
35
201
180
124
202
191
70
204
125
39
175
81
169
212
226
89
241
101
213
185
198
293
71
159
68
282
67
189
249
261

>  <PUBCHEM_MMFF94_PARTIAL_CHARGES>  (1) 
5
1 -0.34
10 0.34
2 -0.68
27 0.4
9 0.28

>  <PUBCHEM_EFFECTIVE_ROTOR_COUNT>  (1) 
7

>  <PUBCHEM_PHARMACOPHORE_FEATURES>  (1) 
4
1 2 acceptor
1 2 donor
3 3 5 7 hydrophobe
3 4 6 8 hydrophobe

>  <PUBCHEM_HEAVY_ATOM_COUNT>  (1) 
10

>  <PUBCHEM_ATOM_DEF_STEREO_COUNT>  (1) 
0

>  <PUBCHEM_ATOM_UDEF_STEREO_COUNT>  (1) 
0

>  <PUBCHEM_BOND_DEF_STEREO_COUNT>  (1) 
0

>  <PUBCHEM_BOND_UDEF_STEREO_COUNT>  (1) 
0

>  <PUBCHEM_ISOTOPIC_ATOM_COUNT>  (1) 
0

>  <PUBCHEM_COMPONENT_COUNT>  (1) 
1

>  <PUBCHEM_CACTVS_TAUTO_COUNT>  (1) 
1

>  <PUBCHEM_CONFORMER_ID>  (1) 
0000268000000001

>  <PUBCHEM_MMFF94_ENERGY>  (1) 
-0.1953

>  <PUBCHEM_FEATURE_SELFOVERLAP>  (1) 
20.297

>  <PUBCHEM_SHAPE_FINGERPRINT>  (1) 
11062470 55 18410575080368118122
114248 4 18410856559639789592
14123238 8 18410855455838469268
15501527 16 18262519187612517557
17834072 33 18201718495933616684
17834076 25 18410011035203317570
187816 3 16559033791867724859
20645477 70 18271247102139311222
20719005 15 18411136930820461160
20767249 213 17240485827228233700
22485316 2 18409165510951747770
23402539 116 18342733014338462045
366044 4 18333450945424216507
42788 4 18410293605607737260

>  <PUBCHEM_SHAPE_MULTIPOLES>  (1) 
192.65
12.26
0.78
0.6
0.03
0
0
-0.17
-0.5
-0.01
0
-0.01
0
0.01

>  <PUBCHEM_SHAPE_SELFOVERLAP>  (1) 
339.976

>  <PUBCHEM_SHAPE_VOLUME>  (1) 
126.2

>  <PUBCHEM_COORDINATE_TYPE>  (1) 
2
5
10

$$$$
