9869
     RDKit          3D

  5  4  0  0  0  0  0  0  0  0999 V2000
    0.0000    0.0000   -0.0157 Si  0  0  0  0  0  4  0  0  0  0  0  0
   -0.0002    0.0000   -1.6178 F   0  0  0  0  0  0  0  0  0  0  0  0
    0.9457    1.4965    0.5444 C   0  0  0  0  0  0  0  0  0  0  0  0
    0.8233   -1.5672    0.5444 C   0  0  0  0  0  0  0  0  0  0  0  0
   -1.7688    0.0707    0.5447 C   0  0  0  0  0  0  0  0  0  0  0  0
  1  2  1  0
  1  3  1  0
  1  4  1  0
  1  5  1  0
M  END
>  <PUBCHEM_COMPOUND_CID>  (1) 
9869

>  <PUBCHEM_CONFORMER_RMSD>  (1) 
0.4

>  <PUBCHEM_CONFORMER_DIVERSEORDER>  (1) 
1

>  <PUBCHEM_MMFF94_PARTIAL_CHARGES>  (1) 
5
1 0.65
2 -0.41
3 -0.08
4 -0.08
5 -0.08

>  <PUBCHEM_EFFECTIVE_ROTOR_COUNT>  (1) 
0

>  <PUBCHEM_PHARMACOPHORE_FEATURES>  (1) 
0

>  <PUBCHEM_HEAVY_ATOM_COUNT>  (1) 
5

>  <PUBCHEM_ATOM_DEF_STEREO_COUNT>  (1) 
0

>  <PUBCHEM_ATOM_UDEF_STEREO_COUNT>  (1) 
0

>  <PUBCHEM_BOND_DEF_STEREO_COUNT>  (1) 
0

>  <PUBCHEM_BOND_UDEF_STEREO_COUNT>  (1) 
0

>  <PUBCHEM_ISOTOPIC_ATOM_COUNT>  (1) 
0

>  <PUBCHEM_COMPONENT_COUNT>  (1) 
1

>  <PUBCHEM_CACTVS_TAUTO_COUNT>  (1) 
1

>  <PUBCHEM_CONFORMER_ID>  (1) 
0000268D00000001

>  <PUBCHEM_MMFF94_ENERGY>  (1) 
-0.3985

>  <PUBCHEM_FEATURE_SELFOVERLAP>  (1) 
0

>  <PUBCHEM_SHAPE_FINGERPRINT>  (1) 
139733 1 11310611755000028859
24536 1 17096104574797841705
29004967 10 14140267940477913392
5943 1 10512908131795730438

>  <PUBCHEM_SHAPE_MULTIPOLES>  (1) 
113.84
1.56
1.56
1.17
0.42
0.63
0.49
-0.63
-0.4
-0.42
-0.4
0
0
0

>  <PUBCHEM_SHAPE_SELFOVERLAP>  (1) 
181.259

>  <PUBCHEM_SHAPE_VOLUME>  (1) 
80.4

>  <PUBCHEM_COORDINATE_TYPE>  (1) 
2
5
10

$$$$
