987
     RDKit          3D

 22 21  0  0  1  0  0  0  0  0999 V2000
    5.8440   -0.0527   -0.5032 S   0  0  0  0  0  0  0  0  0  0  0  0
   -0.1351    2.8764    0.5552 P   0  0  0  0  0  0  0  0  0  0  0  0
   -1.3439    1.8869    0.1422 O   0  0  0  0  0  0  0  0  0  0  0  0
   -3.9976   -1.4280   -0.1279 O   0  0  0  0  0  0  0  0  0  0  0  0
   -1.7339   -2.8772    0.1620 O   0  0  0  0  0  0  0  0  0  0  0  0
   -0.8854    4.0059    1.4363 O   0  0  0  0  0  0  0  0  0  0  0  0
    0.6933    2.0333    1.6590 O   0  0  0  0  0  0  0  0  0  0  0  0
    0.6766    3.4030   -0.5919 O   0  0  0  0  0  0  0  0  0  0  0  0
    1.4643   -2.0790   -0.4923 O   0  0  0  0  0  0  0  0  0  0  0  0
   -0.8839   -1.2087    1.5321 N   0  0  0  0  0  0  0  0  0  0  0  0
    2.7092   -0.1975    0.0595 N   0  0  0  0  0  0  0  0  0  0  0  0
   -2.3779    0.0808   -1.1534 C   0  0  0  0  0  0  0  0  0  0  0  0
   -2.7961   -0.7043    0.1252 C   0  0  0  0  0  0  0  0  0  0  0  0
   -1.1151    0.9386   -0.8947 C   0  0  0  0  0  0  0  0  0  0  0  0
   -2.1230   -0.8788   -2.3329 C   0  0  0  0  0  0  0  0  0  0  0  0
   -3.5415    1.0167   -1.5593 C   0  0  0  0  0  0  0  0  0  0  0  0
   -1.7663   -1.7280    0.5984 C   0  0  0  0  0  0  0  0  0  0  0  0
    0.1950   -1.9777    2.1080 C   0  0  0  0  0  0  0  0  0  0  0  0
    1.5580   -1.3631    1.8209 C   0  0  0  0  0  0  0  0  0  0  0  0
    1.8826   -1.2766    0.3379 C   0  0  0  0  0  0  0  0  0  0  0  0
    3.1789    0.1060   -1.2725 C   0  0  0  0  0  0  0  0  0  0  0  0
    4.4980   -0.5761   -1.6086 C   0  0  0  0  0  0  0  0  0  0  0  0
  1 22  1  0
  2  3  1  0
  2  6  1  0
  2  7  1  0
  2  8  2  0
  3 14  1  0
  4 13  1  0
  5 17  2  0
  9 20  2  0
 10 17  1  0
 10 18  1  0
 11 20  1  0
 11 21  1  0
 12 13  1  0
 12 14  1  0
 12 15  1  0
 12 16  1  0
 13 17  1  0
 18 19  1  0
 19 20  1  0
 21 22  1  0
M  END
>  <PUBCHEM_COMPOUND_CID>  (1) 
987

>  <PUBCHEM_CONFORMER_RMSD>  (1) 
1

>  <PUBCHEM_CONFORMER_DIVERSEORDER>  (1) 
3
49
13
78
62
156
159
130
145
72
212
177
112
185
139
128
75
180
200
211
87
25
143
93
101
23
102
34
195
167
24
68
29
206
50
123
110
149
205
127
74
111
6
54
92
16
88
183
171
204
83
64
191
164
105
84
103
197
147
69
81
99
5
63
109
85
77
118
203
155
53
182
55
209
11
131
157
133
71
79
48
126
196
152
28
12
115
56
201
106
187
170
18
153
10
124
80
150
59
82
26
186
44
207
135
70
192
8
129
30
163
39
138
104
32
161
151
89
190
125
22
113
136
210
179
27
66
184
120
31
154
168
194
175
61
108
208
33
52
158
60
1
96
117
9
21
199
4
36
121
172
181
122
166
35
173
57
165
76
58
119
86
20
116
98
7
148
90
140
178
67
45
2
17
141
176
144
174
15
91
146
198
132
37
43
193
213
46
189
137
14
38
142
94
114
202
65
73
97
51
169
160
40
41
42
47
188
19
100
134
107
95
162

>  <PUBCHEM_MMFF94_PARTIAL_CHARGES>  (1) 
25
1 -0.41
10 -0.73
11 -0.73
13 0.34
14 0.28
17 0.57
18 0.3
19 0.06
2 1.51
20 0.57
21 0.3
22 0.23
3 -0.55
32 0.37
33 0.4
38 0.37
4 -0.68
41 0.5
42 0.5
45 0.18
5 -0.57
6 -0.77
7 -0.77
8 -0.7
9 -0.57

>  <PUBCHEM_EFFECTIVE_ROTOR_COUNT>  (1) 
12

>  <PUBCHEM_PHARMACOPHORE_FEATURES>  (1) 
11
1 10 donor
1 11 donor
1 4 acceptor
1 4 donor
1 5 acceptor
1 6 acceptor
1 7 acceptor
1 8 acceptor
1 9 acceptor
3 12 15 16 hydrophobe
4 2 6 7 8 anion

>  <PUBCHEM_HEAVY_ATOM_COUNT>  (1) 
22

>  <PUBCHEM_ATOM_DEF_STEREO_COUNT>  (1) 
0

>  <PUBCHEM_ATOM_UDEF_STEREO_COUNT>  (1) 
1

>  <PUBCHEM_BOND_DEF_STEREO_COUNT>  (1) 
0

>  <PUBCHEM_BOND_UDEF_STEREO_COUNT>  (1) 
0

>  <PUBCHEM_ISOTOPIC_ATOM_COUNT>  (1) 
0

>  <PUBCHEM_COMPONENT_COUNT>  (1) 
1

>  <PUBCHEM_CACTVS_TAUTO_COUNT>  (1) 
4

>  <PUBCHEM_CONFORMER_ID>  (1) 
000003DB00000003

>  <PUBCHEM_MMFF94_ENERGY>  (1) 
-0.2596

>  <PUBCHEM_FEATURE_SELFOVERLAP>  (1) 
55.866

>  <PUBCHEM_SHAPE_FINGERPRINT>  (1) 
121448 382 18041286491520497328
12788726 201 18197771103388307793
13583140 156 14996869679348398948
14123250 116 18191599557632674736
14251740 79 18113909234593377586
14251745 187 17827077616897955001
14251757 17 18116154557475262572
17357779 13 18202004348088728368
21141583 151 18335710493732988758
23402539 116 18412830179492218494
23419403 2 17320457847475223171
23557571 272 18410858776323442962
23558518 356 18047488737559774842
238 59 17619036853064401173
2748010 2 17393038861073304907
3524813 1 17968377964986147447
469060 322 16227770750939169251
81228 2 17982429522042432881

>  <PUBCHEM_SHAPE_MULTIPOLES>  (1) 
409.4
7.39
3.63
2.03
10.14
3.34
0.06
-1.39
-4.51
-1.66
1.97
-0.16
-0.18
-0.12

>  <PUBCHEM_SHAPE_SELFOVERLAP>  (1) 
767.548

>  <PUBCHEM_SHAPE_VOLUME>  (1) 
257.6

>  <PUBCHEM_COORDINATE_TYPE>  (1) 
2
5
10

$$$$
