9877
     RDKit          3D

  8  7  0  0  1  0  0  0  0  0999 V2000
    1.7332   -1.6216    0.0573 Cl  0  0  0  0  0  0  0  0  0  0  0  0
   -0.2783    0.2574    1.3639 F   0  0  0  0  0  0  0  0  0  0  0  0
   -0.6461    1.4652   -0.4230 F   0  0  0  0  0  0  0  0  0  0  0  0
    1.9774    0.9254   -0.0180 F   0  0  0  0  0  0  0  0  0  0  0  0
   -1.1755   -0.7298   -0.4750 O   0  0  0  0  0  0  0  0  0  0  0  0
   -0.2541    0.2400    0.0095 C   0  0  0  0  0  0  0  0  0  0  0  0
    1.1448   -0.0386   -0.4939 C   0  0  0  0  0  0  0  0  0  0  0  0
   -2.5014   -0.4982   -0.0208 C   0  0  0  0  0  0  0  0  0  0  0  0
  1  7  1  0
  2  6  1  0
  3  6  1  0
  4  7  1  0
  5  6  1  0
  5  8  1  0
  6  7  1  0
M  END
>  <PUBCHEM_COMPOUND_CID>  (1) 
9877

>  <PUBCHEM_CONFORMER_RMSD>  (1) 
0.4

>  <PUBCHEM_CONFORMER_DIVERSEORDER>  (1) 
1
10
13
12
8
2
3
14
7
5
11
9
6
4

>  <PUBCHEM_MMFF94_PARTIAL_CHARGES>  (1) 
8
1 -0.29
2 -0.34
3 -0.34
4 -0.34
5 -0.56
6 0.96
7 0.63
8 0.28

>  <PUBCHEM_EFFECTIVE_ROTOR_COUNT>  (1) 
2

>  <PUBCHEM_PHARMACOPHORE_FEATURES>  (1) 
1
1 5 acceptor

>  <PUBCHEM_HEAVY_ATOM_COUNT>  (1) 
8

>  <PUBCHEM_ATOM_DEF_STEREO_COUNT>  (1) 
0

>  <PUBCHEM_ATOM_UDEF_STEREO_COUNT>  (1) 
1

>  <PUBCHEM_BOND_DEF_STEREO_COUNT>  (1) 
0

>  <PUBCHEM_BOND_UDEF_STEREO_COUNT>  (1) 
0

>  <PUBCHEM_ISOTOPIC_ATOM_COUNT>  (1) 
0

>  <PUBCHEM_COMPONENT_COUNT>  (1) 
1

>  <PUBCHEM_CACTVS_TAUTO_COUNT>  (1) 
1

>  <PUBCHEM_CONFORMER_ID>  (1) 
0000269500000001

>  <PUBCHEM_MMFF94_ENERGY>  (1) 
6.2421

>  <PUBCHEM_FEATURE_SELFOVERLAP>  (1) 
5.074

>  <PUBCHEM_SHAPE_FINGERPRINT>  (1) 
18185500 45 18342455997131882502
21040471 1 18050287273624599686
23552333 60 18272094893737824906
23552423 10 18187931633717886694
29004967 10 18261398904873525403
5943 1 13343264611934327689

>  <PUBCHEM_SHAPE_MULTIPOLES>  (1) 
138.82
2.76
1.36
0.82
0.61
0.06
0.2
0.85
-0.12
-0.45
-0.08
0.05
-0.03
-0.05

>  <PUBCHEM_SHAPE_SELFOVERLAP>  (1) 
253.315

>  <PUBCHEM_SHAPE_VOLUME>  (1) 
90.4

>  <PUBCHEM_COORDINATE_TYPE>  (1) 
2
5
10

$$$$
