9878
     RDKit          3D

 27 30  0  0  1  0  0  0  0  0999 V2000
    0.8876    0.4320    1.2836 F   0  0  0  0  0  0  0  0  0  0  0  0
   -3.4117    0.0954    2.0067 O   0  0  0  0  0  0  0  0  0  0  0  0
   -0.2900    1.9839   -1.7377 O   0  0  0  0  0  0  0  0  0  0  0  0
   -5.5434   -0.0474   -0.6657 O   0  0  0  0  0  0  0  0  0  0  0  0
    5.7184    0.7061    1.5535 O   0  0  0  0  0  0  0  0  0  0  0  0
   -2.2918    0.1712   -0.1814 C   0  0  0  0  0  0  0  0  0  0  0  0
   -1.3352   -0.9691    0.2324 C   0  0  0  0  0  0  0  0  0  0  0  0
    0.0341   -0.8991   -0.4612 C   0  0  0  0  0  0  0  0  0  0  0  0
    0.7255    0.4552   -0.0930 C   0  0  0  0  0  0  0  0  0  0  0  0
   -3.5493   -0.2447    0.6300 C   0  0  0  0  0  0  0  0  0  0  0  0
   -1.6288    1.5007    0.2284 C   0  0  0  0  0  0  0  0  0  0  0  0
   -0.2077    1.6765   -0.3546 C   0  0  0  0  0  0  0  0  0  0  0  0
   -2.1874   -2.2241    0.0602 C   0  0  0  0  0  0  0  0  0  0  0  0
    2.1842    0.5555   -0.6895 C   0  0  0  0  0  0  0  0  0  0  0  0
   -3.6034   -1.7825    0.4845 C   0  0  0  0  0  0  0  0  0  0  0  0
    0.9046   -2.1000   -0.0495 C   0  0  0  0  0  0  0  0  0  0  0  0
    2.3213   -2.0274   -0.6361 C   0  0  0  0  0  0  0  0  0  0  0  0
   -2.6280    0.1714   -1.6987 C   0  0  0  0  0  0  0  0  0  0  0  0
    2.9600   -0.6994   -0.2369 C   0  0  0  0  0  0  0  0  0  0  0  0
   -4.8189    0.4302    0.2060 C   0  0  0  0  0  0  0  0  0  0  0  0
    2.2312    0.6237   -2.2343 C   0  0  0  0  0  0  0  0  0  0  0  0
    2.8520    1.8337   -0.2010 C   0  0  0  0  0  0  0  0  0  0  0  0
    3.0922   -3.2975   -0.2495 C   0  0  0  0  0  0  0  0  0  0  0  0
    4.0929   -0.6256    0.4839 C   0  0  0  0  0  0  0  0  0  0  0  0
    3.9764    1.8974    0.5165 C   0  0  0  0  0  0  0  0  0  0  0  0
   -5.1646    1.7194    0.9007 C   0  0  0  0  0  0  0  0  0  0  0  0
    4.6798    0.6644    0.9025 C   0  0  0  0  0  0  0  0  0  0  0  0
  1  9  1  0
  2 10  1  0
  3 12  1  0
  4 20  2  0
  5 27  2  0
  6  7  1  0
  6 10  1  0
  6 11  1  0
  6 18  1  0
  7  8  1  0
  7 13  1  0
  8  9  1  0
  8 16  1  0
  9 12  1  0
  9 14  1  0
 10 15  1  0
 10 20  1  0
 11 12  1  0
 13 15  1  0
 14 19  1  0
 14 21  1  0
 14 22  1  0
 16 17  1  0
 17 19  1  0
 17 23  1  0
 19 24  2  0
 20 26  1  0
 22 25  2  0
 24 27  1  0
 25 27  1  0
M  END
>  <PUBCHEM_COMPOUND_CID>  (1) 
9878

>  <PUBCHEM_CONFORMER_RMSD>  (1) 
0.6

>  <PUBCHEM_CONFORMER_DIVERSEORDER>  (1) 
1
2

>  <PUBCHEM_MMFF94_PARTIAL_CHARGES>  (1) 
22
1 -0.34
10 0.34
12 0.28
14 0.28
17 0.14
19 -0.28
2 -0.68
20 0.45
22 -0.29
24 -0.14
25 -0.14
26 0.06
27 0.54
3 -0.68
4 -0.57
46 0.15
47 0.4
48 0.4
5 -0.57
52 0.15
53 0.15
9 0.34

>  <PUBCHEM_EFFECTIVE_ROTOR_COUNT>  (1) 
2.4

>  <PUBCHEM_PHARMACOPHORE_FEATURES>  (1) 
10
1 2 acceptor
1 2 donor
1 3 acceptor
1 3 donor
1 4 acceptor
1 5 acceptor
5 6 7 10 13 15 rings
6 14 19 22 24 25 27 rings
6 6 7 8 9 11 12 rings
6 8 9 14 16 17 19 rings

>  <PUBCHEM_HEAVY_ATOM_COUNT>  (1) 
27

>  <PUBCHEM_ATOM_DEF_STEREO_COUNT>  (1) 
8

>  <PUBCHEM_ATOM_UDEF_STEREO_COUNT>  (1) 
0

>  <PUBCHEM_BOND_DEF_STEREO_COUNT>  (1) 
0

>  <PUBCHEM_BOND_UDEF_STEREO_COUNT>  (1) 
0

>  <PUBCHEM_ISOTOPIC_ATOM_COUNT>  (1) 
0

>  <PUBCHEM_COMPONENT_COUNT>  (1) 
1

>  <PUBCHEM_CACTVS_TAUTO_COUNT>  (1) 
6

>  <PUBCHEM_CONFORMER_ID>  (1) 
0000269600000001

>  <PUBCHEM_MMFF94_ENERGY>  (1) 
98.5701

>  <PUBCHEM_FEATURE_SELFOVERLAP>  (1) 
50.846

>  <PUBCHEM_SHAPE_FINGERPRINT>  (1) 
10863032 1 18411991273320878415
10906281 52 18042139763972638516
11132069 177 18335424586012528799
11370993 70 18413389847368140427
11578080 2 18198615536702860608
11796584 16 15285357314522603496
11961588 58 13542452194646978472
12107183 9 17624989226933688627
12236239 1 17560797715190424431
12403814 3 17748825246064478061
12422481 6 18335130965179411794
12596602 18 17418372502161370507
12633257 1 17458062711318222338
12670546 56 17846223215456981889
12788726 201 16845017805634102185
12916754 54 10809347741434575375
13140716 1 18264766747949999112
13224815 77 18410579512785086094
13533116 47 18270684160316563415
13583140 156 17703506700877150587
13675066 3 18113905969937970499
13782708 43 16009328590618120889
14178342 30 18338239391630268331
14223421 5 18338232670386017974
14341114 328 17703504463288905456
14739800 52 17203036414094589562
14790565 3 18048889790420851884
15196674 1 18410858793139139867
15375358 24 18410577301193322795
15788980 27 17095238150797487873
15840311 113 18056491548044157697
16945 1 18411991255771549476
17349148 13 18114180873683277028
17980427 23 17969218013919605196
1813 80 17095247999030780726
19141452 34 18335420192609125119
19784866 9 18343018908831258610
20511986 3 18059278895265040619
20715895 44 18262511482219571117
20775438 99 10883689145398527705
21033648 29 17749388105886850909
21421861 104 18041835104683583906
21452121 103 18412543176365109562
21756936 100 17699278078601082184
21859007 373 17533202077973126853
22149856 69 18268172949722740283
22182313 1 18042115462467332268
23402539 116 18187918525472313970
23557571 272 17676764279870977228
23559900 14 18412269419756009022
296302 2 16917069974985902980
335352 9 18338520741926229846
34797466 226 15625944299901258841
34934 24 18343017800555784983
350125 39 18338521842149753998
3633792 109 18340759335654411509
392239 28 17988082326015985832
4340502 62 18202566202202906003
474 4 18272369819242778608
5104073 3 18338807727973833115
59755656 215 18411704253768248678
633830 44 18059859527725862220
7064713 232 18340766035180803592
7495541 125 13623538973434435725
9709674 26 18411141298860652351

>  <PUBCHEM_SHAPE_MULTIPOLES>  (1) 
524.9
10.34
2.56
1.39
3.13
1.35
-0.31
-2.1
3.47
-1.36
-0.11
-0.18
-0.45
0.32

>  <PUBCHEM_SHAPE_SELFOVERLAP>  (1) 
1142.052

>  <PUBCHEM_SHAPE_VOLUME>  (1) 
287.9

>  <PUBCHEM_COORDINATE_TYPE>  (1) 
2
5
10

$$$$
