988
     RDKit          3D

 15 14  0  0  1  0  0  0  0  0999 V2000
    2.5070   -1.8527    0.3119 O   0  0  0  0  0  0  0  0  0  0  0  0
    2.7364    2.0745   -1.2996 O   0  0  0  0  0  0  0  0  0  0  0  0
    0.3441   -1.8256   -1.3099 O   0  0  0  0  0  0  0  0  0  0  0  0
   -2.9694    1.9593   -0.6349 O   0  0  0  0  0  0  0  0  0  0  0  0
   -3.3523    0.7884    1.2723 O   0  0  0  0  0  0  0  0  0  0  0  0
   -0.9525   -1.2147    0.5147 N   0  0  0  0  0  0  0  0  0  0  0  0
    1.9176    0.5147    0.4051 C   0  0  0  0  0  0  0  0  0  0  0  0
    1.4562   -0.9522    0.6527 C   0  0  0  0  0  0  0  0  0  0  0  0
    2.3149    0.7334   -1.0753 C   0  0  0  0  0  0  0  0  0  0  0  0
    3.1479    0.8016    1.2990 C   0  0  0  0  0  0  0  0  0  0  0  0
    0.8142    1.5158    0.8015 C   0  0  0  0  0  0  0  0  0  0  0  0
    0.2411   -1.3741   -0.1707 C   0  0  0  0  0  0  0  0  0  0  0  0
   -2.2357   -1.5694   -0.0466 C   0  0  0  0  0  0  0  0  0  0  0  0
   -2.8731   -0.4072   -0.7969 C   0  0  0  0  0  0  0  0  0  0  0  0
   -3.0962    0.8083    0.0766 C   0  0  0  0  0  0  0  0  0  0  0  0
  1  8  1  0
  2  9  1  0
  3 12  2  0
  4 15  1  0
  5 15  2  0
  6 12  1  0
  6 13  1  0
  7  8  1  0
  7  9  1  0
  7 10  1  0
  7 11  1  0
  8 12  1  0
 13 14  1  0
 14 15  1  0
M  END
>  <PUBCHEM_COMPOUND_CID>  (1) 
988

>  <PUBCHEM_CONFORMER_RMSD>  (1) 
0.8

>  <PUBCHEM_CONFORMER_DIVERSEORDER>  (1) 
1
32
78
55
34
110
137
94
79
127
18
102
43
131
4
70
42
115
76
136
139
29
24
88
37
81
5
126
97
14
93
141
33
63
57
135
104
12
134
10
7
117
51
13
71
39
16
56
38
35
50
121
122
68
100
91
8
47
62
92
138
123
2
87
80
120
77
82
133
85
84
67
129
30
6
66
107
61
41
125
112
113
124
101
17
59
98
53
114
103
49
86
69
3
44
28
106
9
40
90
116
45
54
140
65
46
72
132
99
128
108
11
118
89
60
109
23
19
52
27
36
22
119
48
75
96
15
20
64
130
74
111
21
25
58
26
83
105
73
142
95
31

>  <PUBCHEM_MMFF94_PARTIAL_CHARGES>  (1) 
16
1 -0.68
12 0.57
13 0.3
14 0.06
15 0.66
2 -0.68
25 0.37
26 0.4
29 0.4
3 -0.57
32 0.5
4 -0.65
5 -0.57
6 -0.73
8 0.34
9 0.28

>  <PUBCHEM_EFFECTIVE_ROTOR_COUNT>  (1) 
7

>  <PUBCHEM_PHARMACOPHORE_FEATURES>  (1) 
10
1 1 acceptor
1 1 donor
1 2 acceptor
1 2 donor
1 3 acceptor
1 4 acceptor
1 5 acceptor
1 6 donor
3 4 5 15 anion
3 7 10 11 hydrophobe

>  <PUBCHEM_HEAVY_ATOM_COUNT>  (1) 
15

>  <PUBCHEM_ATOM_DEF_STEREO_COUNT>  (1) 
0

>  <PUBCHEM_ATOM_UDEF_STEREO_COUNT>  (1) 
1

>  <PUBCHEM_BOND_DEF_STEREO_COUNT>  (1) 
0

>  <PUBCHEM_BOND_UDEF_STEREO_COUNT>  (1) 
0

>  <PUBCHEM_ISOTOPIC_ATOM_COUNT>  (1) 
0

>  <PUBCHEM_COMPONENT_COUNT>  (1) 
1

>  <PUBCHEM_CACTVS_TAUTO_COUNT>  (1) 
2

>  <PUBCHEM_CONFORMER_ID>  (1) 
000003DC00000001

>  <PUBCHEM_MMFF94_ENERGY>  (1) 
24.2652

>  <PUBCHEM_FEATURE_SELFOVERLAP>  (1) 
50.813

>  <PUBCHEM_SHAPE_FINGERPRINT>  (1) 
10498660 4 18263080079880790157
12119455 92 15912470446584577248
12162725 195 18261383485956951787
12932764 1 17916870243413998411
13618510 140 18261109724646501037
13693222 7 18411701002039960633
14386348 128 18412552019803200081
15775835 57 18413107273148716785
16945 1 18195522820962609226
17357990 137 18042681887534702692
18186145 218 17775569744848853313
19107657 9 18341905086314579177
20233049 118 18341889714748004704
20511035 2 18340759386518974010
21501502 16 18411138047871063519
21524375 3 18340763835978537583
22094290 62 18268703931232295827
230 275 18407757032103161935
23419403 2 16473412386192991578
23557571 272 16844154843831107819
2748010 2 18272654558072984618
305870 269 18339347617762622810
44154327 71 18334867112554269549
81228 2 16906929424236305550

>  <PUBCHEM_SHAPE_MULTIPOLES>  (1) 
274.37
5.81
2.22
1.24
2.46
0.08
-0.13
-2.34
0.26
-0.03
-0.34
-0.5
-0.31
-0.4

>  <PUBCHEM_SHAPE_SELFOVERLAP>  (1) 
528.778

>  <PUBCHEM_SHAPE_VOLUME>  (1) 
166.7

>  <PUBCHEM_COORDINATE_TYPE>  (1) 
2
5
10

$$$$
