9892
     RDKit          3D

  8  7  0  0  1  0  0  0  0  0999 V2000
    1.2282    1.3802   -0.4648 F   0  0  0  0  0  0  0  0  0  0  0  0
    1.8672   -0.7054   -0.5618 F   0  0  0  0  0  0  0  0  0  0  0  0
    1.1177    0.1157    1.3121 F   0  0  0  0  0  0  0  0  0  0  0  0
   -1.3562    0.6371    0.1955 O   0  0  0  0  0  0  0  0  0  0  0  0
   -0.6436   -1.6188    0.0653 O   0  0  0  0  0  0  0  0  0  0  0  0
   -0.4518   -0.2893   -0.4055 C   0  0  0  0  0  0  0  0  0  0  0  0
    0.9514    0.1330   -0.0287 C   0  0  0  0  0  0  0  0  0  0  0  0
   -2.7130    0.3474   -0.1122 C   0  0  0  0  0  0  0  0  0  0  0  0
  1  7  1  0
  2  7  1  0
  3  7  1  0
  4  6  1  0
  4  8  1  0
  5  6  1  0
  6  7  1  0
M  END
>  <PUBCHEM_COMPOUND_CID>  (1) 
9892

>  <PUBCHEM_CONFORMER_RMSD>  (1) 
0.4

>  <PUBCHEM_CONFORMER_DIVERSEORDER>  (1) 
2
6
3
5
4
1

>  <PUBCHEM_MMFF94_PARTIAL_CHARGES>  (1) 
9
1 -0.34
13 0.4
2 -0.34
3 -0.34
4 -0.56
5 -0.68
6 0.56
7 1.02
8 0.28

>  <PUBCHEM_EFFECTIVE_ROTOR_COUNT>  (1) 
2

>  <PUBCHEM_PHARMACOPHORE_FEATURES>  (1) 
3
1 4 acceptor
1 5 acceptor
1 5 donor

>  <PUBCHEM_HEAVY_ATOM_COUNT>  (1) 
8

>  <PUBCHEM_ATOM_DEF_STEREO_COUNT>  (1) 
0

>  <PUBCHEM_ATOM_UDEF_STEREO_COUNT>  (1) 
1

>  <PUBCHEM_BOND_DEF_STEREO_COUNT>  (1) 
0

>  <PUBCHEM_BOND_UDEF_STEREO_COUNT>  (1) 
0

>  <PUBCHEM_ISOTOPIC_ATOM_COUNT>  (1) 
0

>  <PUBCHEM_COMPONENT_COUNT>  (1) 
1

>  <PUBCHEM_CACTVS_TAUTO_COUNT>  (1) 
1

>  <PUBCHEM_CONFORMER_ID>  (1) 
000026A400000002

>  <PUBCHEM_MMFF94_ENERGY>  (1) 
6.0087

>  <PUBCHEM_FEATURE_SELFOVERLAP>  (1) 
15.26

>  <PUBCHEM_SHAPE_FINGERPRINT>  (1) 
137420 1 14300459234324485296
16714656 1 18262526896334450318
20096714 4 18334579074424029013
21040471 1 18341890822574935431
24536 1 18267854154656537239
29004967 10 18261966128351048250
5084963 1 18272933787040080357

>  <PUBCHEM_SHAPE_MULTIPOLES>  (1) 
131.08
2.74
1.16
0.8
1.56
0.21
0.17
-0.39
-0.14
-0.09
-0.09
-0.25
-0.03
0.01

>  <PUBCHEM_SHAPE_SELFOVERLAP>  (1) 
246.875

>  <PUBCHEM_SHAPE_VOLUME>  (1) 
82.7

>  <PUBCHEM_COORDINATE_TYPE>  (1) 
2
5
10

$$$$
