9894
     RDKit          3D

 10  9  0  0  0  0  0  0  0  0999 V2000
   -0.0032    2.2166   -0.0768 Cl  0  0  0  0  0  0  0  0  0  0  0  0
   -1.3412   -1.4658   -0.4514 F   0  0  0  0  0  0  0  0  0  0  0  0
   -1.3032   -0.1673    1.3040 F   0  0  0  0  0  0  0  0  0  0  0  0
   -2.3623    0.4610   -0.4899 F   0  0  0  0  0  0  0  0  0  0  0  0
    2.3777    0.4526   -0.4835 F   0  0  0  0  0  0  0  0  0  0  0  0
    1.2954   -0.1747    1.3028 F   0  0  0  0  0  0  0  0  0  0  0  0
    1.3296   -1.4630   -0.4501 F   0  0  0  0  0  0  0  0  0  0  0  0
    0.0010    0.4946   -0.5590 C   0  0  0  0  0  0  0  0  0  0  0  0
   -1.2572   -0.1803   -0.0470 C   0  0  0  0  0  0  0  0  0  0  0  0
    1.2634   -0.1737   -0.0489 C   0  0  0  0  0  0  0  0  0  0  0  0
  1  8  1  0
  2  9  1  0
  3  9  1  0
  4  9  1  0
  5 10  1  0
  6 10  1  0
  7 10  1  0
  8  9  1  0
  8 10  1  0
M  END
>  <PUBCHEM_COMPOUND_CID>  (1) 
9894

>  <PUBCHEM_CONFORMER_RMSD>  (1) 
0.4

>  <PUBCHEM_CONFORMER_DIVERSEORDER>  (1) 
1

>  <PUBCHEM_MMFF94_PARTIAL_CHARGES>  (1) 
10
1 -0.29
10 1.02
2 -0.34
3 -0.34
4 -0.34
5 -0.34
6 -0.34
7 -0.34
8 0.29
9 1.02

>  <PUBCHEM_EFFECTIVE_ROTOR_COUNT>  (1) 
2

>  <PUBCHEM_PHARMACOPHORE_FEATURES>  (1) 
0

>  <PUBCHEM_HEAVY_ATOM_COUNT>  (1) 
10

>  <PUBCHEM_ATOM_DEF_STEREO_COUNT>  (1) 
0

>  <PUBCHEM_ATOM_UDEF_STEREO_COUNT>  (1) 
0

>  <PUBCHEM_BOND_DEF_STEREO_COUNT>  (1) 
0

>  <PUBCHEM_BOND_UDEF_STEREO_COUNT>  (1) 
0

>  <PUBCHEM_ISOTOPIC_ATOM_COUNT>  (1) 
0

>  <PUBCHEM_COMPONENT_COUNT>  (1) 
1

>  <PUBCHEM_CACTVS_TAUTO_COUNT>  (1) 
1

>  <PUBCHEM_CONFORMER_ID>  (1) 
000026A600000001

>  <PUBCHEM_MMFF94_ENERGY>  (1) 
9.8981

>  <PUBCHEM_FEATURE_SELFOVERLAP>  (1) 
0

>  <PUBCHEM_SHAPE_FINGERPRINT>  (1) 
12423570 1 11898165428676482600
18185500 45 18340208586763912367
21040471 1 18340760434353448045
24536 1 18190736445078194364
29004967 10 18335154101851743512
5084963 1 17844253053670365870

>  <PUBCHEM_SHAPE_MULTIPOLES>  (1) 
164.02
2.42
1.63
0.93
0.02
0.75
0.3
-0.31
-0.19
-0.01
-0.19
0
-0.07
0

>  <PUBCHEM_SHAPE_SELFOVERLAP>  (1) 
318.046

>  <PUBCHEM_SHAPE_VOLUME>  (1) 
102.3

>  <PUBCHEM_COORDINATE_TYPE>  (1) 
2
5
10

$$$$
