9899
     RDKit          3D

 13 13  0  0  0  0  0  0  0  0999 V2000
    1.3654    2.4483    0.0208 F   0  0  0  0  0  0  0  0  0  0  0  0
    1.9578    0.6443    1.0690 F   0  0  0  0  0  0  0  0  0  0  0  0
    1.9305    0.6759   -1.1051 F   0  0  0  0  0  0  0  0  0  0  0  0
    0.9392   -2.1311    1.1981 O   0  0  0  0  0  0  0  0  0  0  0  0
    1.0704   -2.2285   -1.0690 O   0  0  0  0  0  0  0  0  0  0  0  0
   -0.1780    0.6205   -0.0076 C   0  0  0  0  0  0  0  0  0  0  0  0
   -0.4877   -0.7394   -0.0305 C   0  0  0  0  0  0  0  0  0  0  0  0
   -1.2011    1.5686    0.0132 C   0  0  0  0  0  0  0  0  0  0  0  0
    1.2407    1.0893   -0.0037 C   0  0  0  0  0  0  0  0  0  0  0  0
   -1.8205   -1.1511   -0.0326 C   0  0  0  0  0  0  0  0  0  0  0  0
   -2.5338    1.1568    0.0111 C   0  0  0  0  0  0  0  0  0  0  0  0
   -2.8434   -0.2030   -0.0118 C   0  0  0  0  0  0  0  0  0  0  0  0
    0.5606   -1.7505   -0.0519 C   0  0  0  0  0  0  0  0  0  0  0  0
  1  9  1  0
  2  9  1  0
  3  9  1  0
  4 13  1  0
  5 13  2  0
  6  7  2  0
  6  8  1  0
  6  9  1  0
  7 10  1  0
  7 13  1  0
  8 11  2  0
 10 12  2  0
 11 12  1  0
M  END
>  <PUBCHEM_COMPOUND_CID>  (1) 
9899

>  <PUBCHEM_CONFORMER_RMSD>  (1) 
0.6

>  <PUBCHEM_CONFORMER_DIVERSEORDER>  (1) 
1
2

>  <PUBCHEM_MMFF94_PARTIAL_CHARGES>  (1) 
18
1 -0.34
10 -0.15
11 -0.15
12 -0.15
13 0.63
14 0.15
15 0.15
16 0.15
17 0.15
18 0.5
2 -0.34
3 -0.34
4 -0.65
5 -0.57
6 -0.14
7 0.09
8 -0.15
9 1.16

>  <PUBCHEM_EFFECTIVE_ROTOR_COUNT>  (1) 
2

>  <PUBCHEM_PHARMACOPHORE_FEATURES>  (1) 
4
1 4 acceptor
1 5 acceptor
3 4 5 13 anion
6 6 7 8 10 11 12 rings

>  <PUBCHEM_HEAVY_ATOM_COUNT>  (1) 
13

>  <PUBCHEM_ATOM_DEF_STEREO_COUNT>  (1) 
0

>  <PUBCHEM_ATOM_UDEF_STEREO_COUNT>  (1) 
0

>  <PUBCHEM_BOND_DEF_STEREO_COUNT>  (1) 
0

>  <PUBCHEM_BOND_UDEF_STEREO_COUNT>  (1) 
0

>  <PUBCHEM_ISOTOPIC_ATOM_COUNT>  (1) 
0

>  <PUBCHEM_COMPONENT_COUNT>  (1) 
1

>  <PUBCHEM_CACTVS_TAUTO_COUNT>  (1) 
1

>  <PUBCHEM_CONFORMER_ID>  (1) 
000026AB00000001

>  <PUBCHEM_MMFF94_ENERGY>  (1) 
31.43

>  <PUBCHEM_FEATURE_SELFOVERLAP>  (1) 
20.355

>  <PUBCHEM_SHAPE_FINGERPRINT>  (1) 
12423570 1 10263260426512494019
12524768 44 17981879753290661295
12696612 119 18336259033759954171
14817 1 14400981410346878482
161256 15 18338807706277040509
16945 1 18412830204855820597
17990270 104 18268990891103653071
193761 8 18339080380923913757
20645476 183 17388540698510164020
20871998 184 17405155504532462838
21040471 1 18194682789720515925
2334 1 17906733957687264045
23552423 10 18262242123134105495
241688 4 17834397821829119465
2748010 2 18050288368983853813
5084963 1 18059025010789201633
7364860 26 18200872877060507603
81228 2 17329990707861762481

>  <PUBCHEM_SHAPE_MULTIPOLES>  (1) 
233.97
3.08
2.46
0.87
1.64
0.03
0.03
-0.26
-0.02
-1.12
0
-0.44
0.21
0

>  <PUBCHEM_SHAPE_SELFOVERLAP>  (1) 
499.87

>  <PUBCHEM_SHAPE_VOLUME>  (1) 
130.3

>  <PUBCHEM_COORDINATE_TYPE>  (1) 
2
5
10

$$$$
