9901
     RDKit          3D

 23 26  0  0  1  0  0  0  0  0999 V2000
   -4.4881    1.2238    0.3115 O   0  0  0  0  0  0  0  0  0  0  0  0
    5.8435   -0.2454   -1.3357 O   0  0  0  0  0  0  0  0  0  0  0  0
   -1.5800    1.1101    0.1821 C   0  0  0  0  0  0  0  0  0  0  0  0
   -2.4555   -0.1324    0.4820 C   0  0  0  0  0  0  0  0  0  0  0  0
   -0.1001    0.9671    0.6015 C   0  0  0  0  0  0  0  0  0  0  0  0
    0.5601   -0.3375    0.0868 C   0  0  0  0  0  0  0  0  0  0  0  0
    2.0762   -0.4773    0.5117 C   0  0  0  0  0  0  0  0  0  0  0  0
   -1.7448   -1.4211   -0.0105 C   0  0  0  0  0  0  0  0  0  0  0  0
   -3.7357    0.1988   -0.3458 C   0  0  0  0  0  0  0  0  0  0  0  0
   -0.3024   -1.5529    0.4807 C   0  0  0  0  0  0  0  0  0  0  0  0
   -1.8247    1.3907   -1.3126 C   0  0  0  0  0  0  0  0  0  0  0  0
    0.7183    2.1937    0.1722 C   0  0  0  0  0  0  0  0  0  0  0  0
   -3.1919    0.7846   -1.6564 C   0  0  0  0  0  0  0  0  0  0  0  0
    2.8219    0.8295    0.2162 C   0  0  0  0  0  0  0  0  0  0  0  0
   -2.7573   -0.2464    1.9897 C   0  0  0  0  0  0  0  0  0  0  0  0
    2.1536    2.1044    0.6711 C   0  0  0  0  0  0  0  0  0  0  0  0
    2.7032   -1.6434   -0.3085 C   0  0  0  0  0  0  0  0  0  0  0  0
    2.2322   -0.7866    2.0185 C   0  0  0  0  0  0  0  0  0  0  0  0
    4.2236   -1.6589   -0.2828 C   0  0  0  0  0  0  0  0  0  0  0  0
   -4.6122   -0.9573   -0.5754 C   0  0  0  0  0  0  0  0  0  0  0  0
    4.0195    0.8924   -0.3895 C   0  0  0  0  0  0  0  0  0  0  0  0
    4.7698   -0.3339   -0.7437 C   0  0  0  0  0  0  0  0  0  0  0  0
   -5.3290   -1.9019   -0.7629 C   0  0  0  0  0  0  0  0  0  0  0  0
  1  9  1  0
  2 22  2  0
  3  4  1  0
  3  5  1  0
  3 11  1  0
  4  8  1  0
  4  9  1  0
  4 15  1  0
  5  6  1  0
  5 12  1  0
  6  7  1  0
  6 10  1  0
  7 14  1  0
  7 17  1  0
  7 18  1  0
  8 10  1  0
  9 13  1  0
  9 20  1  0
 11 13  1  0
 12 16  1  0
 14 16  1  0
 14 21  2  0
 17 19  1  0
 19 22  1  0
 20 23  3  0
 21 22  1  0
M  END
>  <PUBCHEM_COMPOUND_CID>  (1) 
9901

>  <PUBCHEM_CONFORMER_RMSD>  (1) 
0.6

>  <PUBCHEM_CONFORMER_DIVERSEORDER>  (1) 
1
51
48
46
25
17
6
49
50
43
16
52
53
39
35
15
47
18
38
30
28
54
13
33
12
36
37
20
19
24
8
41
21
56
11
7
32
34
40
9
27
57
45
55
14
23
2
42
29
3
44
26
31
22
4
10
5

>  <PUBCHEM_MMFF94_PARTIAL_CHARGES>  (1) 
14
1 -0.68
14 -0.28
16 0.14
19 0.06
2 -0.57
20 -0.2
21 -0.14
22 0.49
23 -0.18
49 0.15
50 0.4
51 0.18
7 0.14
9 0.48

>  <PUBCHEM_EFFECTIVE_ROTOR_COUNT>  (1) 
1.8

>  <PUBCHEM_PHARMACOPHORE_FEATURES>  (1) 
8
1 1 acceptor
1 1 donor
1 2 acceptor
1 23 hydrophobe
5 3 4 9 11 13 rings
6 3 4 5 6 8 10 rings
6 5 6 7 12 14 16 rings
6 7 14 17 19 21 22 rings

>  <PUBCHEM_HEAVY_ATOM_COUNT>  (1) 
23

>  <PUBCHEM_ATOM_DEF_STEREO_COUNT>  (1) 
1

>  <PUBCHEM_ATOM_UDEF_STEREO_COUNT>  (1) 
5

>  <PUBCHEM_BOND_DEF_STEREO_COUNT>  (1) 
0

>  <PUBCHEM_BOND_UDEF_STEREO_COUNT>  (1) 
0

>  <PUBCHEM_ISOTOPIC_ATOM_COUNT>  (1) 
0

>  <PUBCHEM_COMPONENT_COUNT>  (1) 
1

>  <PUBCHEM_CACTVS_TAUTO_COUNT>  (1) 
5

>  <PUBCHEM_CONFORMER_ID>  (1) 
000026AD00000001

>  <PUBCHEM_MMFF94_ENERGY>  (1) 
69.1533

>  <PUBCHEM_FEATURE_SELFOVERLAP>  (1) 
40.795

>  <PUBCHEM_SHAPE_FINGERPRINT>  (1) 
10366900 7 17821726160862049889
10498660 4 17458615683973048724
10759866 29 17458339685548839674
11089746 13 13623525796438017486
11615757 297 18272652363444734937
11961588 58 17168426073037962166
12011746 2 18187080676474638127
12236239 1 17346885558736999777
12403259 415 18333723633351403181
12553582 1 18343023255448970824
12670546 177 18335137596203027326
12788726 201 18193555567022613465
12916754 54 18342453764291921475
13224815 77 18113893862361827011
13288520 33 18131918160860623159
13533116 47 17845652697940061497
13862211 1 18412826863830427530
13944108 23 16242909579099410853
14576447 43 18342458136589857838
15163728 17 15359357669020288239
15196674 1 18412543214861539977
15635459 17 18408882949379673954
15848702 151 18060143119672790423
16752209 62 18267013973360114528
16945 1 18341884178086604912
17349148 13 17775567563242889127
1813 80 17417824919849217868
18186145 218 18336816529289675089
19784866 240 17989494038879804477
19862831 5 18334575716023282592
200 152 17989487424292558353
20645477 70 18339073895365294572
20871999 31 18334297569324641834
21267235 1 18342182206358066415
221357 26 18410851070961846365
221490 88 18267025135763786850
22182313 1 18263341728987892133
22393880 68 18335127687950631285
22950370 63 18272092677481829149
23402539 116 18202285754140103948
23493267 7 17312823766540068112
23559900 14 18272643584410490017
2871803 45 18187640340414054906
296302 2 14779267518394587208
3004659 81 18188211997226768222
312423 11 17060064782256645840
3323516 105 18410568509094626549
46194498 28 18115024228998124700
465052 167 17845939635956969447
474 4 12612763414730232884
5104073 3 18342172271940137763
6786 2 11406456471709578328
9709674 26 18337387270334812027

>  <PUBCHEM_SHAPE_MULTIPOLES>  (1) 
461.59
10.51
2.04
1.38
0.89
0.22
0.32
-3.17
-3.88
0.05
-0.07
-0.19
-0.03
0.17

>  <PUBCHEM_SHAPE_SELFOVERLAP>  (1) 
992.806

>  <PUBCHEM_SHAPE_VOLUME>  (1) 
251.4

>  <PUBCHEM_COORDINATE_TYPE>  (1) 
2
5
10

$$$$
