9905
     RDKit          3D

 12 12  0  0  0  0  0  0  0  0999 V2000
    1.4534    0.0470    1.6121 F   0  0  0  0  0  0  0  0  0  0  0  0
    2.7838   -1.0810    0.2952 F   0  0  0  0  0  0  0  0  0  0  0  0
    2.7937    1.0938    0.2557 F   0  0  0  0  0  0  0  0  0  0  0  0
    1.2531   -0.0541   -1.9012 O   0  0  0  0  0  0  0  0  0  0  0  0
   -0.5104   -0.0098   -0.3385 C   0  0  0  0  0  0  0  0  0  0  0  0
    0.8965   -0.0206   -0.7061 C   0  0  0  0  0  0  0  0  0  0  0  0
   -1.1851    1.2029   -0.1973 C   0  0  0  0  0  0  0  0  0  0  0  0
   -1.1855   -1.2121   -0.1274 C   0  0  0  0  0  0  0  0  0  0  0  0
   -2.5347    1.2135    0.1550 C   0  0  0  0  0  0  0  0  0  0  0  0
   -2.5352   -1.2015    0.2249 C   0  0  0  0  0  0  0  0  0  0  0  0
    1.9801    0.0106    0.3618 C   0  0  0  0  0  0  0  0  0  0  0  0
   -3.2097    0.0113    0.3660 C   0  0  0  0  0  0  0  0  0  0  0  0
  1 11  1  0
  2 11  1  0
  3 11  1  0
  4  6  2  0
  5  6  1  0
  5  7  2  0
  5  8  1  0
  6 11  1  0
  7  9  1  0
  8 10  2  0
  9 12  2  0
 10 12  1  0
M  END
>  <PUBCHEM_COMPOUND_CID>  (1) 
9905

>  <PUBCHEM_CONFORMER_RMSD>  (1) 
0.6

>  <PUBCHEM_CONFORMER_DIVERSEORDER>  (1) 
1
2

>  <PUBCHEM_MMFF94_PARTIAL_CHARGES>  (1) 
17
1 -0.34
10 -0.15
11 1.08
12 -0.15
13 0.15
14 0.15
15 0.15
16 0.15
17 0.15
2 -0.34
3 -0.34
4 -0.57
5 0.09
6 0.42
7 -0.15
8 -0.15
9 -0.15

>  <PUBCHEM_EFFECTIVE_ROTOR_COUNT>  (1) 
2

>  <PUBCHEM_PHARMACOPHORE_FEATURES>  (1) 
2
1 4 acceptor
6 5 7 8 9 10 12 rings

>  <PUBCHEM_HEAVY_ATOM_COUNT>  (1) 
12

>  <PUBCHEM_ATOM_DEF_STEREO_COUNT>  (1) 
0

>  <PUBCHEM_ATOM_UDEF_STEREO_COUNT>  (1) 
0

>  <PUBCHEM_BOND_DEF_STEREO_COUNT>  (1) 
0

>  <PUBCHEM_BOND_UDEF_STEREO_COUNT>  (1) 
0

>  <PUBCHEM_ISOTOPIC_ATOM_COUNT>  (1) 
0

>  <PUBCHEM_COMPONENT_COUNT>  (1) 
1

>  <PUBCHEM_CACTVS_TAUTO_COUNT>  (1) 
1

>  <PUBCHEM_CONFORMER_ID>  (1) 
000026B100000001

>  <PUBCHEM_MMFF94_ENERGY>  (1) 
30.3479

>  <PUBCHEM_FEATURE_SELFOVERLAP>  (1) 
10.148

>  <PUBCHEM_SHAPE_FINGERPRINT>  (1) 
10857977 72 18343303708191679833
11031198 65 16487264273981298453
12326174 3 16056051129594866302
124424 183 17916578735419752794
12932764 1 18411144636128953343
13839132 238 18059020475477979309
15219456 202 17846508010348323902
15775835 57 18335424543152533409
16945 1 18337967735402035365
20201158 50 17561085769798530631
20361792 2 16153419528575341030
20645464 45 17988928846985148503
20871998 184 18200317752917788727
21040471 1 18265908951589692165
22445834 79 17895187749533609963
23552423 10 17748831829869774639
2748010 2 18048894996099711703
369184 2 18411696591182335635
5084963 1 17749676198949260741

>  <PUBCHEM_SHAPE_MULTIPOLES>  (1) 
219.26
4.59
1.27
1.08
0.18
0
-0.18
0.01
0.9
-0.52
0.05
0.64
0
0.01

>  <PUBCHEM_SHAPE_SELFOVERLAP>  (1) 
461.996

>  <PUBCHEM_SHAPE_VOLUME>  (1) 
124.2

>  <PUBCHEM_COORDINATE_TYPE>  (1) 
2
5
10

$$$$
