9913
     RDKit          3D

 22 23  0  0  1  0  0  0  0  0999 V2000
    1.5971   -2.7666    1.2649 O   0  0  0  0  0  0  0  0  0  0  0  0
    0.2530    1.4408   -0.3789 O   0  0  0  0  0  0  0  0  0  0  0  0
   -4.3562    1.9341    0.3462 O   0  0  0  0  0  0  0  0  0  0  0  0
    3.3963    3.3065    0.4322 O   0  0  0  0  0  0  0  0  0  0  0  0
   -0.2998   -1.4974   -0.4812 N   0  0  0  0  0  0  0  0  0  0  0  0
    3.8479   -0.2796   -0.2993 N   0  0  0  0  0  0  0  0  0  0  0  0
   -3.5111   -0.2180    0.0836 N   0  0  0  0  0  0  0  0  0  0  0  0
   -2.0524    1.7130   -0.0150 N   0  0  0  0  0  0  0  0  0  0  0  0
   -2.3398   -2.3600   -0.2275 N   0  0  0  0  0  0  0  0  0  0  0  0
    1.9137   -1.5298    0.6217 C   0  0  0  0  0  0  0  0  0  0  0  0
    1.1274   -1.4587   -0.6933 C   0  0  0  0  0  0  0  0  0  0  0  0
    3.4298   -1.4863    0.4016 C   0  0  0  0  0  0  0  0  0  0  0  0
   -1.1407   -0.4392   -0.2885 C   0  0  0  0  0  0  0  0  0  0  0  0
   -2.3817   -0.9946   -0.1358 C   0  0  0  0  0  0  0  0  0  0  0  0
   -1.0681   -2.6321   -0.4363 C   0  0  0  0  0  0  0  0  0  0  0  0
    3.4641    0.9156    0.4548 C   0  0  0  0  0  0  0  0  0  0  0  0
   -0.8689    0.9610   -0.2411 C   0  0  0  0  0  0  0  0  0  0  0  0
   -3.3862    1.1922    0.1531 C   0  0  0  0  0  0  0  0  0  0  0  0
    5.2940   -0.2905   -0.5296 C   0  0  0  0  0  0  0  0  0  0  0  0
    3.8003    2.1750   -0.3277 C   0  0  0  0  0  0  0  0  0  0  0  0
   -4.8160   -0.8481    0.2417 C   0  0  0  0  0  0  0  0  0  0  0  0
   -1.9027    3.1629    0.0546 C   0  0  0  0  0  0  0  0  0  0  0  0
  1 10  1  0
  2 17  2  0
  3 18  2  0
  4 20  1  0
  5 11  1  0
  5 13  1  0
  5 15  1  0
  6 12  1  0
  6 16  1  0
  6 19  1  0
  7 14  1  0
  7 18  1  0
  7 21  1  0
  8 17  1  0
  8 18  1  0
  8 22  1  0
  9 14  1  0
  9 15  2  0
 10 11  1  0
 10 12  1  0
 13 14  2  0
 13 17  1  0
 16 20  1  0
M  END
>  <PUBCHEM_COMPOUND_CID>  (1) 
9913

>  <PUBCHEM_CONFORMER_RMSD>  (1) 
0.8

>  <PUBCHEM_CONFORMER_DIVERSEORDER>  (1) 
7
89
80
26
68
91
58
42
85
67
56
34
57
93
82
29
25
86
28
23
15
36
44
75
10
77
52
59
2
4
76
66
32
8
53
46
43
13
1
17
84
27
31
78
38
71
19
20
55
74
6
9
79
51
81
3
54
21
22
50
14
92
63
73
11
37
61
24
83
90
88
30
5
69
49
35
40
45
33
65
39
41
16
64
87
60
72
62
70
12
48
18
47

>  <PUBCHEM_MMFF94_PARTIAL_CHARGES>  (1) 
25
1 -0.68
10 0.28
11 0.26
12 0.27
13 -0.24
14 0.29
15 0.04
16 0.27
17 0.71
18 0.69
19 0.27
2 -0.57
20 0.28
21 0.3
22 0.3
28 0.15
3 -0.57
34 0.4
4 -0.68
43 0.4
5 0.05
6 -0.81
7 -0.42
8 -0.42
9 -0.57

>  <PUBCHEM_EFFECTIVE_ROTOR_COUNT>  (1) 
6

>  <PUBCHEM_PHARMACOPHORE_FEATURES>  (1) 
10
1 1 acceptor
1 1 donor
1 2 acceptor
1 3 acceptor
1 4 acceptor
1 4 donor
1 6 cation
3 5 9 15 cation
5 5 9 13 14 15 rings
6 7 8 13 14 17 18 rings

>  <PUBCHEM_HEAVY_ATOM_COUNT>  (1) 
22

>  <PUBCHEM_ATOM_DEF_STEREO_COUNT>  (1) 
0

>  <PUBCHEM_ATOM_UDEF_STEREO_COUNT>  (1) 
1

>  <PUBCHEM_BOND_DEF_STEREO_COUNT>  (1) 
0

>  <PUBCHEM_BOND_UDEF_STEREO_COUNT>  (1) 
0

>  <PUBCHEM_ISOTOPIC_ATOM_COUNT>  (1) 
0

>  <PUBCHEM_COMPONENT_COUNT>  (1) 
1

>  <PUBCHEM_CACTVS_TAUTO_COUNT>  (1) 
1

>  <PUBCHEM_CONFORMER_ID>  (1) 
000026B900000007

>  <PUBCHEM_MMFF94_ENERGY>  (1) 
39.0211

>  <PUBCHEM_FEATURE_SELFOVERLAP>  (1) 
50.861

>  <PUBCHEM_SHAPE_FINGERPRINT>  (1) 
10366900 7 17967541151112552066
10411042 1 18051694644499152687
10498660 4 18338228396698262732
10616163 171 18411701014935561462
11578080 2 17024578993663131927
12390115 104 18057902246408990849
12633257 1 18336537232140789520
13140716 1 18337112392116742035
13583140 156 17387410125921489859
14787075 74 18041279992956040515
14790565 3 18341620291676561745
15196674 1 18411419518272985228
15536298 74 18341613776057744612
17834072 32 18341050692659845097
19591789 44 18411699923881992937
20510252 161 18271810051870666619
21267235 1 18410302422996657222
21652331 79 18410855485903246826
23227448 37 18341893021513834246
23559900 14 18129104411779218590
2748010 2 17112988362227610709
335352 9 18339924822960055892
350125 39 18410295783219752236
392239 28 18115316686143031251
474 4 17749395905394622246
5104073 3 18408323263422050347
7097593 13 17827060819534822042
7832392 63 18412258416223675022
9709674 26 18342462525709064886

>  <PUBCHEM_SHAPE_MULTIPOLES>  (1) 
404.37
9.23
3.59
0.77
3.32
1.46
0.06
2.51
0.34
0.24
0.33
0.3
-0.24
-0.41

>  <PUBCHEM_SHAPE_SELFOVERLAP>  (1) 
838.263

>  <PUBCHEM_SHAPE_VOLUME>  (1) 
233

>  <PUBCHEM_COORDINATE_TYPE>  (1) 
2
5
10

$$$$
