9932
     RDKit          3D

 15 17  0  0  0  0  0  0  0  0999 V2000
    0.6858    2.3598   -0.0374 O   0  0  0  0  0  0  0  0  0  0  0  0
   -0.3379   -2.8639    0.0690 O   0  0  0  0  0  0  0  0  0  0  0  0
    2.8198    0.6633    0.0211 N   0  0  0  0  0  0  0  0  0  0  0  0
    3.8574   -0.1173    0.6917 C   0  0  0  0  0  0  0  0  0  0  0  0
    3.8185   -0.0215   -0.7967 C   0  0  0  0  0  0  0  0  0  0  0  0
    1.5517    0.1577    0.0218 C   0  0  0  0  0  0  0  0  0  0  0  0
   -0.9584    0.6543   -0.0004 C   0  0  0  0  0  0  0  0  0  0  0  0
   -1.2267   -0.6612    0.0117 C   0  0  0  0  0  0  0  0  0  0  0  0
   -2.0447    1.7017   -0.0019 C   0  0  0  0  0  0  0  0  0  0  0  0
   -2.6312   -1.2088   -0.0144 C   0  0  0  0  0  0  0  0  0  0  0  0
   -3.4289    1.1483    0.3407 C   0  0  0  0  0  0  0  0  0  0  0  0
   -3.6852   -0.1648   -0.3858 C   0  0  0  0  0  0  0  0  0  0  0  0
    0.4457    1.1548   -0.0062 C   0  0  0  0  0  0  0  0  0  0  0  0
    1.2590   -1.1465    0.0445 C   0  0  0  0  0  0  0  0  0  0  0  0
   -0.1248   -1.6558    0.0425 C   0  0  0  0  0  0  0  0  0  0  0  0
  1 13  2  0
  2 15  2  0
  3  4  1  0
  3  5  1  0
  3  6  1  0
  4  5  1  0
  6 13  1  0
  6 14  2  0
  7  8  2  0
  7  9  1  0
  7 13  1  0
  8 10  1  0
  8 15  1  0
  9 11  1  0
 10 12  1  0
 11 12  1  0
 14 15  1  0
M  END
>  <PUBCHEM_COMPOUND_CID>  (1) 
9932

>  <PUBCHEM_CONFORMER_RMSD>  (1) 
0.6

>  <PUBCHEM_CONFORMER_DIVERSEORDER>  (1) 
1
3
2

>  <PUBCHEM_MMFF94_PARTIAL_CHARGES>  (1) 
18
1 -0.57
10 0.14
13 0.54
14 -0.14
15 0.54
16 0.1
17 0.1
18 0.1
19 0.1
2 -0.57
28 0.15
3 -0.44
4 -0.03
5 -0.03
6 0.11
7 -0.12
8 -0.12
9 0.14

>  <PUBCHEM_EFFECTIVE_ROTOR_COUNT>  (1) 
2.4

>  <PUBCHEM_PHARMACOPHORE_FEATURES>  (1) 
5
1 1 acceptor
1 2 acceptor
1 3 cation
6 6 7 8 13 14 15 rings
6 7 8 9 10 11 12 rings

>  <PUBCHEM_HEAVY_ATOM_COUNT>  (1) 
15

>  <PUBCHEM_ATOM_DEF_STEREO_COUNT>  (1) 
0

>  <PUBCHEM_ATOM_UDEF_STEREO_COUNT>  (1) 
0

>  <PUBCHEM_BOND_DEF_STEREO_COUNT>  (1) 
0

>  <PUBCHEM_BOND_UDEF_STEREO_COUNT>  (1) 
0

>  <PUBCHEM_ISOTOPIC_ATOM_COUNT>  (1) 
0

>  <PUBCHEM_COMPONENT_COUNT>  (1) 
1

>  <PUBCHEM_CACTVS_TAUTO_COUNT>  (1) 
13

>  <PUBCHEM_CONFORMER_ID>  (1) 
000026CC00000001

>  <PUBCHEM_MMFF94_ENERGY>  (1) 
41.8855

>  <PUBCHEM_FEATURE_SELFOVERLAP>  (1) 
25.388

>  <PUBCHEM_SHAPE_FINGERPRINT>  (1) 
10062212 137 18337099103625149755
108231 29 18201156636881043153
10967382 1 18410573938044136339
10980938 120 18265335006293139675
11132069 177 18411696569433368000
11206711 2 18409443700341618509
11458722 379 18338806615366247734
11680986 33 18050283970573469353
12032990 46 18412269440871993374
13140716 1 18122345954194646059
13221675 6 18410011043883013903
13380535 76 18409166584778045779
13862211 1 18410848897909250615
14144814 61 18409165515135685584
14325111 11 18411138017589722280
14614273 12 18116145585019309445
14911166 2 18410292540250080871
14993402 34 18408040723314639500
15196674 1 18410855455838475744
15309172 13 18410017619662489219
15536298 74 18200312100550818998
15775835 57 18335141964237241697
16945 1 18339081595951317603
17804303 29 18412548742463454912
17846911 113 18411694370541857920
18186145 218 18272089366304883792
19026448 4 16415478250857209376
193761 8 17834114525659706921
20510252 161 18272933816989099696
20511035 2 17912080856762725668
20645476 183 17749968768037896534
21267235 1 18410582785576695219
21501502 16 18194397797482211459
21524375 3 18408882919135964035
2334 1 17617940674099202827
23402539 116 18271232876901113030
23402655 69 18268978805698867237
23419403 2 16039912721197365365
23463225 33 18262233322661784978
23559900 14 18343025502323495564
2748010 2 18339085860880333375
4072396 5 18190440702299208939
43471831 8 18335980857197288258
528886 8 18410851040654300185
53655031 270 18409727331143861707
53812653 166 18342735200102334248
54173680 148 18192996151842827731
69090 78 17846773031205304742
7364860 26 18054227618145471879
8809292 202 18188494695699225451

>  <PUBCHEM_SHAPE_MULTIPOLES>  (1) 
291.97
6.16
2.16
0.7
1.96
0.54
0.01
-0.84
0.16
-0.71
-0.06
0.22
-0.01
-0.13

>  <PUBCHEM_SHAPE_SELFOVERLAP>  (1) 
629.337

>  <PUBCHEM_SHAPE_VOLUME>  (1) 
160.7

>  <PUBCHEM_COORDINATE_TYPE>  (1) 
2
5
10

$$$$
