9934
     RDKit          3D

  8  8  0  0  1  0  0  0  0  0999 V2000
   -2.3798   -0.8199    0.2402 S   0  0  0  0  0  0  0  0  0  0  0  0
    2.1925   -1.0486   -0.3296 O   0  0  0  0  0  0  0  0  0  0  0  0
    1.9630    1.0585    0.5090 O   0  0  0  0  0  0  0  0  0  0  0  0
   -0.6330    1.1629   -0.0721 N   0  0  0  0  0  0  0  0  0  0  0  0
    0.0544   -0.0897   -0.4185 C   0  0  0  0  0  0  0  0  0  0  0  0
   -0.6201   -1.2242    0.3406 C   0  0  0  0  0  0  0  0  0  0  0  0
   -2.0627    0.8949   -0.2491 C   0  0  0  0  0  0  0  0  0  0  0  0
    1.4857    0.0660   -0.0205 C   0  0  0  0  0  0  0  0  0  0  0  0
  1  6  1  0
  1  7  1  0
  2  8  1  0
  3  8  2  0
  4  5  1  0
  4  7  1  0
  5  6  1  0
  5  8  1  0
M  END
>  <PUBCHEM_COMPOUND_CID>  (1) 
9934

>  <PUBCHEM_CONFORMER_RMSD>  (1) 
0.4

>  <PUBCHEM_CONFORMER_DIVERSEORDER>  (1) 
1
4
8
5
3
6
7
2

>  <PUBCHEM_MMFF94_PARTIAL_CHARGES>  (1) 
10
1 -0.46
12 0.36
15 0.5
2 -0.65
3 -0.57
4 -0.9
5 0.33
6 0.23
7 0.5
8 0.66

>  <PUBCHEM_EFFECTIVE_ROTOR_COUNT>  (1) 
2

>  <PUBCHEM_PHARMACOPHORE_FEATURES>  (1) 
6
1 2 acceptor
1 3 acceptor
1 4 cation
1 4 donor
3 2 3 8 anion
5 1 4 5 6 7 rings

>  <PUBCHEM_HEAVY_ATOM_COUNT>  (1) 
8

>  <PUBCHEM_ATOM_DEF_STEREO_COUNT>  (1) 
0

>  <PUBCHEM_ATOM_UDEF_STEREO_COUNT>  (1) 
1

>  <PUBCHEM_BOND_DEF_STEREO_COUNT>  (1) 
0

>  <PUBCHEM_BOND_UDEF_STEREO_COUNT>  (1) 
0

>  <PUBCHEM_ISOTOPIC_ATOM_COUNT>  (1) 
0

>  <PUBCHEM_COMPONENT_COUNT>  (1) 
1

>  <PUBCHEM_CACTVS_TAUTO_COUNT>  (1) 
1

>  <PUBCHEM_CONFORMER_ID>  (1) 
000026CE00000001

>  <PUBCHEM_MMFF94_ENERGY>  (1) 
8.6577

>  <PUBCHEM_FEATURE_SELFOVERLAP>  (1) 
30.502

>  <PUBCHEM_SHAPE_FINGERPRINT>  (1) 
10857977 72 18263638635934558641
16714656 1 18333736805752017967
21040471 1 18189053105660977701
23552423 10 18114186332281027902
24536 1 18260259793626122868
29004967 10 18337676445955691387
5084963 1 18187934945227089277

>  <PUBCHEM_SHAPE_MULTIPOLES>  (1) 
151.77
3.28
1.37
0.69
0.15
0
0.01
-0.19
0.13
-0.18
0.05
0
-0.01
0.33

>  <PUBCHEM_SHAPE_SELFOVERLAP>  (1) 
287.14

>  <PUBCHEM_SHAPE_VOLUME>  (1) 
95.6

>  <PUBCHEM_COORDINATE_TYPE>  (1) 
2
5
10

$$$$
