9952
     RDKit          3D

 22 22  0  0  0  0  0  0  0  0999 V2000
   -6.1497   -1.0415   -0.2565 F   0  0  0  0  0  0  0  0  0  0  0  0
   -0.4588    1.4781   -0.5055 O   0  0  0  0  0  0  0  0  0  0  0  0
   -1.0492    2.3071    1.5593 O   0  0  0  0  0  0  0  0  0  0  0  0
    2.5597   -0.2231   -0.6951 N   0  0  0  0  0  0  0  0  0  0  0  0
    2.3230   -1.6622   -0.5686 C   0  0  0  0  0  0  0  0  0  0  0  0
    3.9861    0.0542   -0.8147 C   0  0  0  0  0  0  0  0  0  0  0  0
    1.8323    0.3115   -1.8477 C   0  0  0  0  0  0  0  0  0  0  0  0
    0.9457   -1.9223    0.0389 C   0  0  0  0  0  0  0  0  0  0  0  0
    4.6507    0.0191    0.5604 C   0  0  0  0  0  0  0  0  0  0  0  0
    1.6022    1.8101   -1.6799 C   0  0  0  0  0  0  0  0  0  0  0  0
    0.6692   -3.4213    0.1603 C   0  0  0  0  0  0  0  0  0  0  0  0
    6.1526    0.2865    0.4554 C   0  0  0  0  0  0  0  0  0  0  0  0
    0.8081    2.1154   -0.4171 C   0  0  0  0  0  0  0  0  0  0  0  0
   -0.6854   -3.6885    0.7968 C   0  0  0  0  0  0  0  0  0  0  0  0
    6.8155    0.2884    1.8236 C   0  0  0  0  0  0  0  0  0  0  0  0
   -1.2942    1.6564    0.5553 C   0  0  0  0  0  0  0  0  0  0  0  0
   -2.5781    0.9421    0.3410 C   0  0  0  0  0  0  0  0  0  0  0  0
   -3.5765    0.9953    1.3136 C   0  0  0  0  0  0  0  0  0  0  0  0
   -2.7862    0.2188   -0.8334 C   0  0  0  0  0  0  0  0  0  0  0  0
   -4.7831    0.3252    1.1118 C   0  0  0  0  0  0  0  0  0  0  0  0
   -3.9927   -0.4513   -1.0352 C   0  0  0  0  0  0  0  0  0  0  0  0
   -4.9912   -0.3982   -0.0626 C   0  0  0  0  0  0  0  0  0  0  0  0
  1 22  1  0
  2 13  1  0
  2 16  1  0
  3 16  2  0
  4  5  1  0
  4  6  1  0
  4  7  1  0
  5  8  1  0
  6  9  1  0
  7 10  1  0
  8 11  1  0
  9 12  1  0
 10 13  1  0
 11 14  1  0
 12 15  1  0
 16 17  1  0
 17 18  2  0
 17 19  1  0
 18 20  1  0
 19 21  2  0
 20 22  2  0
 21 22  1  0
M  END
>  <PUBCHEM_COMPOUND_CID>  (1) 
9952

>  <PUBCHEM_CONFORMER_RMSD>  (1) 
1

>  <PUBCHEM_CONFORMER_DIVERSEORDER>  (1) 
1
86
62
72
39
43
66
95
10
109
35
51
123
114
105
13
6
53
106
25
18
60
104
78
120
24
82
49
50
85
40
112
11
67
17
90
91
32
102
29
30
107
42
70
63
58
97
94
57
100
110
37
96
99
84
7
47
108
44
4
101
118
88
48
33
52
28
55
75
73
2
111
92
80
89
103
98
71
87
20
115
21
14
121
54
41
116
61
27
117
93
5
79
26
77
59
3
23
38
76
68
65
81
64
69
83
19
46
113
122
45
8
15
119
22
34
36
56
12
74
9
31
16

>  <PUBCHEM_MMFF94_PARTIAL_CHARGES>  (1) 
19
1 -0.19
13 0.28
16 0.63
17 0.09
18 -0.15
19 -0.15
2 -0.43
20 -0.15
21 -0.15
22 0.19
3 -0.57
4 -0.81
47 0.15
48 0.15
49 0.15
5 0.27
50 0.15
6 0.27
7 0.27

>  <PUBCHEM_EFFECTIVE_ROTOR_COUNT>  (1) 
12

>  <PUBCHEM_PHARMACOPHORE_FEATURES>  (1) 
5
1 14 hydrophobe
1 15 hydrophobe
1 3 acceptor
1 4 cation
6 17 18 19 20 21 22 rings

>  <PUBCHEM_HEAVY_ATOM_COUNT>  (1) 
22

>  <PUBCHEM_ATOM_DEF_STEREO_COUNT>  (1) 
0

>  <PUBCHEM_ATOM_UDEF_STEREO_COUNT>  (1) 
0

>  <PUBCHEM_BOND_DEF_STEREO_COUNT>  (1) 
0

>  <PUBCHEM_BOND_UDEF_STEREO_COUNT>  (1) 
0

>  <PUBCHEM_ISOTOPIC_ATOM_COUNT>  (1) 
0

>  <PUBCHEM_COMPONENT_COUNT>  (1) 
1

>  <PUBCHEM_CACTVS_TAUTO_COUNT>  (1) 
1

>  <PUBCHEM_CONFORMER_ID>  (1) 
000026E000000001

>  <PUBCHEM_MMFF94_ENERGY>  (1) 
29.6157

>  <PUBCHEM_FEATURE_SELFOVERLAP>  (1) 
25.371

>  <PUBCHEM_SHAPE_FINGERPRINT>  (1) 
1100329 8 18337390573164558630
11578080 2 18053935165301282025
11646440 116 18271253806187186219
12596602 18 17417818309646233467
12838862 33 18339624699467369783
12838863 1 18335410300957330891
14178342 30 18121227484861137924
14251751 18 16081381781438896280
14341114 328 17775565308654071304
14787075 74 18131629010957085832
14863182 85 18264224551289589382
15183329 4 12324233950110254144
15475509 84 17537174905442337610
17349148 13 18114475486975800876
17834072 8 11674877780071440964
20028762 73 18342740732284534118
20511986 3 18129376008753024277
21304304 249 18335136501666666558
21315763 178 18343305838790844733
22079108 93 18131624591857595000
22224240 67 18343014502353035792
23559900 14 14562820996514118412
392239 28 18201999932635501760
59682541 35 18059286673577564056

>  <PUBCHEM_SHAPE_MULTIPOLES>  (1) 
428.76
13
3.05
1.53
6.86
3.2
-0.03
-0.67
-4.85
-0.24
-0.43
0.81
-0.59
-0.57

>  <PUBCHEM_SHAPE_SELFOVERLAP>  (1) 
846.889

>  <PUBCHEM_SHAPE_VOLUME>  (1) 
257.5

>  <PUBCHEM_COORDINATE_TYPE>  (1) 
2
5
10

$$$$
