9953
     RDKit          3D

 22 24  0  0  0  0  0  0  0  0999 V2000
    0.8483   -2.4971   -0.0606 S   0  0  0  0  0  0  0  0  0  0  0  0
   -1.0831   -0.8532    1.7321 O   0  0  0  0  0  0  0  0  0  0  0  0
    0.9171   -2.8970    1.3317 O   0  0  0  0  0  0  0  0  0  0  0  0
    1.1559   -3.4451   -1.1140 O   0  0  0  0  0  0  0  0  0  0  0  0
   -2.6416   -0.5886    0.0454 N   0  0  0  0  0  0  0  0  0  0  0  0
   -0.6742   -1.7842   -0.3706 N   0  0  0  0  0  0  0  0  0  0  0  0
   -3.5968    0.1859    0.8063 C   0  0  0  0  0  0  0  0  0  0  0  0
   -3.2785    1.6829    0.7288 C   0  0  0  0  0  0  0  0  0  0  0  0
   -5.0301   -0.1018    0.3469 C   0  0  0  0  0  0  0  0  0  0  0  0
   -3.5858    2.2758   -0.6463 C   0  0  0  0  0  0  0  0  0  0  0  0
   -5.3344    0.4940   -1.0277 C   0  0  0  0  0  0  0  0  0  0  0  0
   -5.0206    1.9861   -1.0766 C   0  0  0  0  0  0  0  0  0  0  0  0
    4.0927    2.8791    0.6774 C   0  0  0  0  0  0  0  0  0  0  0  0
    3.5856    1.7545    1.5929 C   0  0  0  0  0  0  0  0  0  0  0  0
    4.5192    2.2176   -0.6417 C   0  0  0  0  0  0  0  0  0  0  0  0
    3.0749    0.7711    0.5877 C   0  0  0  0  0  0  0  0  0  0  0  0
    3.6048    1.0341   -0.6810 C   0  0  0  0  0  0  0  0  0  0  0  0
   -1.4526   -1.0478    0.5780 C   0  0  0  0  0  0  0  0  0  0  0  0
    2.2335   -0.3075    0.8008 C   0  0  0  0  0  0  0  0  0  0  0  0
    1.9148   -1.1231   -0.2872 C   0  0  0  0  0  0  0  0  0  0  0  0
    3.3044    0.2237   -1.7627 C   0  0  0  0  0  0  0  0  0  0  0  0
    2.4465   -0.8594   -1.5597 C   0  0  0  0  0  0  0  0  0  0  0  0
  1  3  2  0
  1  4  2  0
  1  6  1  0
  1 20  1  0
  2 18  2  0
  5  7  1  0
  5 18  1  0
  6 18  1  0
  7  8  1  0
  7  9  1  0
  8 10  1  0
  9 11  1  0
 10 12  1  0
 11 12  1  0
 13 14  1  0
 13 15  1  0
 14 16  1  0
 15 17  1  0
 16 17  2  0
 16 19  1  0
 17 21  1  0
 19 20  2  0
 20 22  1  0
 21 22  2  0
M  END
>  <PUBCHEM_COMPOUND_CID>  (1) 
9953

>  <PUBCHEM_CONFORMER_RMSD>  (1) 
0.8

>  <PUBCHEM_CONFORMER_DIVERSEORDER>  (1) 
1
30
60
43
46
68
15
19
75
9
52
50
23
76
57
73
14
51
47
38
63
80
28
29
77
83
18
12
66
64
7
65
59
27
25
55
41
34
36
85
62
74
26
6
72
49
44
21
78
32
71
48
13
37
69
31
22
53
24
16
67
20
54
10
70
8
58
42
11
56
84
79
33
81
40
45
35
39
61
17
82
2
3
5
4

>  <PUBCHEM_MMFF94_PARTIAL_CHARGES>  (1) 
21
1 1.45
14 0.14
15 0.14
16 -0.14
17 -0.14
18 0.87
19 -0.15
2 -0.57
20 -0.01
21 -0.15
22 -0.15
3 -0.65
34 0.37
4 -0.65
41 0.15
42 0.15
43 0.15
44 0.42
5 -0.73
6 -0.79
7 0.3

>  <PUBCHEM_EFFECTIVE_ROTOR_COUNT>  (1) 
6.8

>  <PUBCHEM_PHARMACOPHORE_FEATURES>  (1) 
8
1 2 acceptor
1 3 acceptor
1 4 acceptor
1 5 donor
1 6 donor
5 13 14 15 16 17 rings
6 16 17 19 20 21 22 rings
6 7 8 9 10 11 12 rings

>  <PUBCHEM_HEAVY_ATOM_COUNT>  (1) 
22

>  <PUBCHEM_ATOM_DEF_STEREO_COUNT>  (1) 
0

>  <PUBCHEM_ATOM_UDEF_STEREO_COUNT>  (1) 
0

>  <PUBCHEM_BOND_DEF_STEREO_COUNT>  (1) 
0

>  <PUBCHEM_BOND_UDEF_STEREO_COUNT>  (1) 
0

>  <PUBCHEM_ISOTOPIC_ATOM_COUNT>  (1) 
0

>  <PUBCHEM_COMPONENT_COUNT>  (1) 
1

>  <PUBCHEM_CACTVS_TAUTO_COUNT>  (1) 
3

>  <PUBCHEM_CONFORMER_ID>  (1) 
000026E100000001

>  <PUBCHEM_MMFF94_ENERGY>  (1) 
20.255

>  <PUBCHEM_FEATURE_SELFOVERLAP>  (1) 
40.742

>  <PUBCHEM_SHAPE_FINGERPRINT>  (1) 
10498660 4 18412266155248535177
10928967 22 12679455383551458685
12363563 72 9295298248075325156
12596602 18 16298955380042582568
12633257 1 15357694240538373872
12670546 177 17489588982725745199
12730499 353 18270977811620705395
12769317 202 18343862216848555256
12788726 201 16374693129613850227
13103583 49 12035717674801143565
13402501 40 18411416249782521064
13965767 371 17749377166272838238
14251764 38 18190735324392995205
14252887 29 8286199414322893190
14341114 328 16009033933616586116
14420673 8 9943541734154286845
14468879 13 18334301993436213523
14848178 96 18411141316030030345
14957384 54 18262795315149054112
17868525 174 17391905955795026219
193927 3 9223240658116047729
21304303 282 17627195143728542078
21388113 180 18338796826767067061
22393880 68 18342179946930865055
23227448 37 18270397338337418229
23559900 14 18121773929503180163
238 59 18059866025699819502
2838139 119 18339352054490122284
341906 21 17748831829954157749
3421961 26 8646763396069374718
43658 37 18412542111186839727
44317340 157 18266739087675437325
474 4 17967818228053339767
56633871 153 11314300646977545537
5895379 119 17627511531987311152
6328613 192 18188500181095369988
633830 44 17631191739419024859
67856867 119 18263071137811672691
7097593 13 11314612929622028219
7808743 9 18119535581410819940
7970288 3 10303553700702208228
960060 61 15267340725901605273
9981440 41 18113900489691934203

>  <PUBCHEM_SHAPE_MULTIPOLES>  (1) 
429.03
11.37
3.4
1.52
10.42
1.13
-0.05
-9.78
-1.98
-2.06
-0.02
-0.69
0.01
1.37

>  <PUBCHEM_SHAPE_SELFOVERLAP>  (1) 
891.037

>  <PUBCHEM_SHAPE_VOLUME>  (1) 
244.7

>  <PUBCHEM_COORDINATE_TYPE>  (1) 
2
5
10

$$$$
