9959
     RDKit          3D

  6  5  0  0  0  0  0  0  0  0999 V2000
    2.3329    0.0358   -0.0096 F   0  0  0  0  0  0  0  0  0  0  0  0
   -1.1228   -0.7023   -0.0008 O   0  0  0  0  0  0  0  0  0  0  0  0
   -0.0194    1.3270    0.0039 O   0  0  0  0  0  0  0  0  0  0  0  0
    1.2153   -0.7405    0.0080 C   0  0  0  0  0  0  0  0  0  0  0  0
   -0.0230    0.1034    0.0035 C   0  0  0  0  0  0  0  0  0  0  0  0
   -2.3828   -0.0235   -0.0050 C   0  0  0  0  0  0  0  0  0  0  0  0
  1  4  1  0
  2  5  1  0
  2  6  1  0
  3  5  2  0
  4  5  1  0
M  END
>  <PUBCHEM_COMPOUND_CID>  (1) 
9959

>  <PUBCHEM_CONFORMER_RMSD>  (1) 
0.4

>  <PUBCHEM_CONFORMER_DIVERSEORDER>  (1) 
1
2
3
4

>  <PUBCHEM_MMFF94_PARTIAL_CHARGES>  (1) 
6
1 -0.34
2 -0.43
3 -0.57
4 0.4
5 0.66
6 0.28

>  <PUBCHEM_EFFECTIVE_ROTOR_COUNT>  (1) 
2

>  <PUBCHEM_PHARMACOPHORE_FEATURES>  (1) 
1
1 3 acceptor

>  <PUBCHEM_HEAVY_ATOM_COUNT>  (1) 
6

>  <PUBCHEM_ATOM_DEF_STEREO_COUNT>  (1) 
0

>  <PUBCHEM_ATOM_UDEF_STEREO_COUNT>  (1) 
0

>  <PUBCHEM_BOND_DEF_STEREO_COUNT>  (1) 
0

>  <PUBCHEM_BOND_UDEF_STEREO_COUNT>  (1) 
0

>  <PUBCHEM_ISOTOPIC_ATOM_COUNT>  (1) 
0

>  <PUBCHEM_COMPONENT_COUNT>  (1) 
1

>  <PUBCHEM_CACTVS_TAUTO_COUNT>  (1) 
1

>  <PUBCHEM_CONFORMER_ID>  (1) 
000026E700000001

>  <PUBCHEM_MMFF94_ENERGY>  (1) 
3.8199

>  <PUBCHEM_FEATURE_SELFOVERLAP>  (1) 
5.074

>  <PUBCHEM_SHAPE_FINGERPRINT>  (1) 
139733 1 9223229654430921347
16714656 1 18341615892928040830
20096714 4 18267024032220656393
29004967 10 18335145297110849011
5460574 1 9295290542877648323

>  <PUBCHEM_SHAPE_MULTIPOLES>  (1) 
104.46
2.83
0.99
0.56
0.29
0.21
0
-0.29
0.01
-0.03
0
0.03
-0.01
0

>  <PUBCHEM_SHAPE_SELFOVERLAP>  (1) 
188.272

>  <PUBCHEM_SHAPE_VOLUME>  (1) 
67.8

>  <PUBCHEM_COORDINATE_TYPE>  (1) 
2
5
10

$$$$
