9963
     RDKit          3D

 13 13  0  0  0  0  0  0  0  0999 V2000
    3.3624    0.4488   -0.0005 F   0  0  0  0  0  0  0  0  0  0  0  0
    2.5292   -1.2346    1.0839 F   0  0  0  0  0  0  0  0  0  0  0  0
    2.5076   -1.2275   -1.0906 F   0  0  0  0  0  0  0  0  0  0  0  0
   -3.7721    0.0315    0.0008 O   0  0  0  0  0  0  0  0  0  0  0  0
   -2.6811   -1.9626    0.0008 O   0  0  0  0  0  0  0  0  0  0  0  0
    0.9799    0.2312    0.0012 C   0  0  0  0  0  0  0  0  0  0  0  0
   -0.1813   -0.5418    0.0013 C   0  0  0  0  0  0  0  0  0  0  0  0
   -1.4312    0.0775    0.0009 C   0  0  0  0  0  0  0  0  0  0  0  0
    0.8910    1.6234    0.0006 C   0  0  0  0  0  0  0  0  0  0  0  0
    2.3167   -0.4301    0.0007 C   0  0  0  0  0  0  0  0  0  0  0  0
   -1.5199    1.4696    0.0003 C   0  0  0  0  0  0  0  0  0  0  0  0
   -0.3589    2.2425    0.0003 C   0  0  0  0  0  0  0  0  0  0  0  0
   -2.6423   -0.7278    0.0004 C   0  0  0  0  0  0  0  0  0  0  0  0
  1 10  1  0
  2 10  1  0
  3 10  1  0
  4 13  1  0
  5 13  2  0
  6  7  2  0
  6  9  1  0
  6 10  1  0
  7  8  1  0
  8 11  2  0
  8 13  1  0
  9 12  2  0
 11 12  1  0
M  END
>  <PUBCHEM_COMPOUND_CID>  (1) 
9963

>  <PUBCHEM_CONFORMER_RMSD>  (1) 
0.6

>  <PUBCHEM_CONFORMER_DIVERSEORDER>  (1) 
1
2

>  <PUBCHEM_MMFF94_PARTIAL_CHARGES>  (1) 
18
1 -0.34
10 1.16
11 -0.15
12 -0.15
13 0.63
14 0.15
15 0.15
16 0.15
17 0.15
18 0.5
2 -0.34
3 -0.34
4 -0.65
5 -0.57
6 -0.14
7 -0.15
8 0.09
9 -0.15

>  <PUBCHEM_EFFECTIVE_ROTOR_COUNT>  (1) 
2

>  <PUBCHEM_PHARMACOPHORE_FEATURES>  (1) 
4
1 4 acceptor
1 5 acceptor
3 4 5 13 anion
6 6 7 8 9 11 12 rings

>  <PUBCHEM_HEAVY_ATOM_COUNT>  (1) 
13

>  <PUBCHEM_ATOM_DEF_STEREO_COUNT>  (1) 
0

>  <PUBCHEM_ATOM_UDEF_STEREO_COUNT>  (1) 
0

>  <PUBCHEM_BOND_DEF_STEREO_COUNT>  (1) 
0

>  <PUBCHEM_BOND_UDEF_STEREO_COUNT>  (1) 
0

>  <PUBCHEM_ISOTOPIC_ATOM_COUNT>  (1) 
0

>  <PUBCHEM_COMPONENT_COUNT>  (1) 
1

>  <PUBCHEM_CACTVS_TAUTO_COUNT>  (1) 
1

>  <PUBCHEM_CONFORMER_ID>  (1) 
000026EB00000001

>  <PUBCHEM_MMFF94_ENERGY>  (1) 
27.3686

>  <PUBCHEM_FEATURE_SELFOVERLAP>  (1) 
20.355

>  <PUBCHEM_SHAPE_FINGERPRINT>  (1) 
10130415 120 18409729569286124545
10857977 72 18342728615991276944
12932764 1 17896609379619385492
14128692 85 18337397131331862197
14252887 29 18271537475660219202
15375462 189 18187365454154780947
161256 15 18339639048410260832
16945 1 18122626054639416228
17990270 104 18267305524387909167
20201158 50 18410572907294222319
20645477 70 18123466344254832575
20871998 184 18201717306190733149
20871998 22 18342184370525510103
21501925 9 18268419316845215547
23402539 116 18409720786188884414
23552423 10 18188773993032447813
23559900 14 18268142072923039690
2748010 2 18410847798144272461
3312278 4 18334296495677581651
5902787 121 18262230139911833195
7364860 26 18055072326680524001
8030462 33 17750245728966750242
81228 2 18266465308410007809

>  <PUBCHEM_SHAPE_MULTIPOLES>  (1) 
233.97
4.91
1.95
0.71
0.41
0.58
0
-2.08
-0.01
0.36
0
-0.32
-0.15
0

>  <PUBCHEM_SHAPE_SELFOVERLAP>  (1) 
497.976

>  <PUBCHEM_SHAPE_VOLUME>  (1) 
131.1

>  <PUBCHEM_COORDINATE_TYPE>  (1) 
2
5
10

$$$$
