9967
     RDKit          3D

 10 10  0  0  0  0  0  0  0  0999 V2000
   -2.7312    1.4726    0.0008 F   0  0  0  0  0  0  0  0  0  0  0  0
    2.3478    1.5244   -0.0006 O   0  0  0  0  0  0  0  0  0  0  0  0
    0.5709   -0.0543   -0.0001 C   0  0  0  0  0  0  0  0  0  0  0  0
   -0.4289    0.9184   -0.0002 C   0  0  0  0  0  0  0  0  0  0  0  0
    0.2285   -1.4065    0.0000 C   0  0  0  0  0  0  0  0  0  0  0  0
    1.9703    0.3416    0.0002 C   0  0  0  0  0  0  0  0  0  0  0  0
   -1.7711    0.5389   -0.0003 C   0  0  0  0  0  0  0  0  0  0  0  0
   -1.1139   -1.7860   -0.0001 C   0  0  0  0  0  0  0  0  0  0  0  0
   -2.1137   -0.8133   -0.0003 C   0  0  0  0  0  0  0  0  0  0  0  0
    3.0413   -0.7358    0.0006 C   0  0  0  0  0  0  0  0  0  0  0  0
  1  7  1  0
  2  6  2  0
  3  4  2  0
  3  5  1  0
  3  6  1  0
  4  7  1  0
  5  8  2  0
  6 10  1  0
  7  9  2  0
  8  9  1  0
M  END
>  <PUBCHEM_COMPOUND_CID>  (1) 
9967

>  <PUBCHEM_CONFORMER_RMSD>  (1) 
0.4

>  <PUBCHEM_CONFORMER_DIVERSEORDER>  (1) 
1
3
2
4

>  <PUBCHEM_MMFF94_PARTIAL_CHARGES>  (1) 
14
1 -0.19
10 0.06
11 0.15
12 0.15
13 0.15
14 0.15
2 -0.57
3 0.09
4 -0.15
5 -0.15
6 0.42
7 0.19
8 -0.15
9 -0.15

>  <PUBCHEM_EFFECTIVE_ROTOR_COUNT>  (1) 
1

>  <PUBCHEM_PHARMACOPHORE_FEATURES>  (1) 
2
1 2 acceptor
6 3 4 5 7 8 9 rings

>  <PUBCHEM_HEAVY_ATOM_COUNT>  (1) 
10

>  <PUBCHEM_ATOM_DEF_STEREO_COUNT>  (1) 
0

>  <PUBCHEM_ATOM_UDEF_STEREO_COUNT>  (1) 
0

>  <PUBCHEM_BOND_DEF_STEREO_COUNT>  (1) 
0

>  <PUBCHEM_BOND_UDEF_STEREO_COUNT>  (1) 
0

>  <PUBCHEM_ISOTOPIC_ATOM_COUNT>  (1) 
0

>  <PUBCHEM_COMPONENT_COUNT>  (1) 
1

>  <PUBCHEM_CACTVS_TAUTO_COUNT>  (1) 
2

>  <PUBCHEM_CONFORMER_ID>  (1) 
000026EF00000001

>  <PUBCHEM_MMFF94_ENERGY>  (1) 
23.5188

>  <PUBCHEM_FEATURE_SELFOVERLAP>  (1) 
10.148

>  <PUBCHEM_SHAPE_FINGERPRINT>  (1) 
12716758 59 18412822503678817666
12932764 1 17631453534871344150
13380535 76 18339077073735974247
14325111 11 18410573989509851872
16945 1 18338797797392012038
193761 8 14591804522543630050
19973954 147 18338518659088519988
20653085 51 18409741650612338336
20871998 184 18128262387651395839
21040471 1 18410573968050748711
23235685 24 18339636724843113425
23552423 10 18188771768302730926
241688 4 17763740297093805307
2748010 2 18410856594041732598
369184 2 18342457092369394938
5084963 1 18272651259532638226

>  <PUBCHEM_SHAPE_MULTIPOLES>  (1) 
192.65
3.94
1.73
0.6
1.41
0.14
0
-0.64
0
-0.42
0
0.01
0.03
0

>  <PUBCHEM_SHAPE_SELFOVERLAP>  (1) 
402.102

>  <PUBCHEM_SHAPE_VOLUME>  (1) 
110.3

>  <PUBCHEM_COORDINATE_TYPE>  (1) 
2
5
10

$$$$
