9976
     RDKit          3D

 13 13  0  0  1  0  0  0  0  0999 V2000
    2.8374   -2.0426    0.3641 F   0  0  0  0  0  0  0  0  0  0  0  0
   -1.5908   -1.4376   -1.2133 O   0  0  0  0  0  0  0  0  0  0  0  0
   -3.1947   -1.3633    0.3970 O   0  0  0  0  0  0  0  0  0  0  0  0
   -3.2378    1.3884    0.0716 N   0  0  0  0  0  0  0  0  0  0  0  0
   -0.9595    0.9623    0.8672 C   0  0  0  0  0  0  0  0  0  0  0  0
   -1.9959    0.6724   -0.2271 C   0  0  0  0  0  0  0  0  0  0  0  0
    0.4569    0.6875    0.4151 C   0  0  0  0  0  0  0  0  0  0  0  0
    0.9952   -0.5739    0.6051 C   0  0  0  0  0  0  0  0  0  0  0  0
    1.1866    1.7030   -0.1796 C   0  0  0  0  0  0  0  0  0  0  0  0
   -2.3435   -0.8021   -0.2784 C   0  0  0  0  0  0  0  0  0  0  0  0
    2.3019   -0.8276    0.1877 C   0  0  0  0  0  0  0  0  0  0  0  0
    2.4933    1.4495   -0.5966 C   0  0  0  0  0  0  0  0  0  0  0  0
    3.0510    0.1841   -0.4130 C   0  0  0  0  0  0  0  0  0  0  0  0
  1 11  1  0
  2 10  1  0
  3 10  2  0
  4  6  1  0
  5  6  1  0
  5  7  1  0
  6 10  1  0
  7  8  2  0
  7  9  1  0
  8 11  1  0
  9 12  2  0
 11 13  2  0
 12 13  1  0
M  END
>  <PUBCHEM_COMPOUND_CID>  (1) 
9976

>  <PUBCHEM_CONFORMER_RMSD>  (1) 
0.6

>  <PUBCHEM_CONFORMER_DIVERSEORDER>  (1) 
1
22
9
14
31
13
19
29
20
5
23
25
8
6
10
17
27
26
3
12
18
15
4
16
11
28
24
7
30
2
21

>  <PUBCHEM_MMFF94_PARTIAL_CHARGES>  (1) 
20
1 -0.19
10 0.66
11 0.19
12 -0.15
13 -0.15
17 0.15
18 0.15
19 0.36
2 -0.65
20 0.36
21 0.15
22 0.15
23 0.5
3 -0.57
4 -0.99
5 0.14
6 0.33
7 -0.14
8 -0.15
9 -0.15

>  <PUBCHEM_EFFECTIVE_ROTOR_COUNT>  (1) 
3

>  <PUBCHEM_PHARMACOPHORE_FEATURES>  (1) 
6
1 2 acceptor
1 3 acceptor
1 4 cation
1 4 donor
3 2 3 10 anion
6 7 8 9 11 12 13 rings

>  <PUBCHEM_HEAVY_ATOM_COUNT>  (1) 
13

>  <PUBCHEM_ATOM_DEF_STEREO_COUNT>  (1) 
0

>  <PUBCHEM_ATOM_UDEF_STEREO_COUNT>  (1) 
1

>  <PUBCHEM_BOND_DEF_STEREO_COUNT>  (1) 
0

>  <PUBCHEM_BOND_UDEF_STEREO_COUNT>  (1) 
0

>  <PUBCHEM_ISOTOPIC_ATOM_COUNT>  (1) 
0

>  <PUBCHEM_COMPONENT_COUNT>  (1) 
1

>  <PUBCHEM_CACTVS_TAUTO_COUNT>  (1) 
1

>  <PUBCHEM_CONFORMER_ID>  (1) 
000026F800000001

>  <PUBCHEM_MMFF94_ENERGY>  (1) 
22.5981

>  <PUBCHEM_FEATURE_SELFOVERLAP>  (1) 
30.503

>  <PUBCHEM_SHAPE_FINGERPRINT>  (1) 
12897270 3 18189895490434294693
12932764 1 17988361584647302161
14128692 85 18413670214506863768
15310529 11 18336829787811344413
15375462 189 18200319951698087427
15775835 57 18335428958168066484
16945 1 18194677300752357112
17844478 74 18115878566981514795
18619055 16 18340764862391130437
19422 9 18409453583119330091
20645476 183 18411144640445221391
20645477 70 18408317796340573695
21501502 16 18408324393162050073
232386 152 18060131033882706638
23463225 33 18340206289009279847
23552423 10 18408884065844343513
23598291 2 18335705979321576829
3248919 1 18187633743460410777
63268167 104 18335704918659963552
8030462 33 18341040921609110389
81228 2 16127550154403824257
9939556 21 18409730634074198813

>  <PUBCHEM_SHAPE_MULTIPOLES>  (1) 
243.54
5.32
1.88
0.86
1.32
0.24
-0.05
0.79
-0.46
-0.27
-0.05
0.08
0.06
-0.56

>  <PUBCHEM_SHAPE_SELFOVERLAP>  (1) 
503.901

>  <PUBCHEM_SHAPE_VOLUME>  (1) 
139

>  <PUBCHEM_COORDINATE_TYPE>  (1) 
2
5
10

$$$$
